


 40 42  0  0  0  0  0  0  0  0999 V2000
    5.2329    4.2290   22.4258 C   0  0  0  0  0  0  0  0  0  0  0  0
    5.4849    5.5748   22.2848 N   0  0  0  0  0  0  0  0  0  0  0  0
    4.4650    3.8011   23.2949 O   0  0  0  0  0  0  0  0  0  0  0  0
    6.1056    5.8625   21.5768 H   0  0  0  0  0  0  0  0  0  0  0  0
    5.4690    2.0229   21.1948 C   0  0  0  0  0  0  0  0  0  0  0  0
    5.9502    3.3352   21.4745 C   0  0  0  0  0  0  0  0  0  0  0  0
    7.1418    3.7626   20.8094 C   0  0  0  0  0  0  0  0  0  0  0  0
    7.8153    2.9009   19.9012 C   0  0  0  0  0  0  0  0  0  0  0  0
    7.3332    1.5968   19.6261 C   0  0  0  0  0  0  0  0  0  0  0  0
    6.1501    1.1780   20.2898 C   0  0  0  0  0  0  0  0  0  0  0  0
    9.4126    0.3311   18.8456 C   0  0  0  0  0  0  0  0  0  0  0  0
    8.0506    0.6760   18.6587 C   0  0  0  0  0  0  0  0  0  0  0  0
    7.3822    0.1280   17.5355 C   0  0  0  0  0  0  0  0  0  0  0  0
    8.0363   -0.7375   16.6227 C   0  0  0  0  0  0  0  0  0  0  0  0
    9.3965   -1.0759   16.8169 C   0  0  0  0  0  0  0  0  0  0  0  0
   10.0900   -0.5397   17.9351 C   0  0  0  0  0  0  0  0  0  0  0  0
   11.5352   -0.8851   18.1606 C   0  0  0  0  0  0  0  0  0  0  0  0
   11.9305   -2.0625   17.3794 N   0  0  0  0  0  0  0  0  0  0  0  0
   11.8071   -1.8683   16.3857 H   0  0  0  0  0  0  0  0  0  0  0  0
   11.3494   -2.8576   17.6451 H   0  0  0  0  0  0  0  0  0  0  0  0
    4.8747    6.6030   23.1372 C   0  0  0  0  0  0  0  0  0  0  0  0
    4.2409    7.6682   22.2278 C   0  0  0  0  0  0  0  0  0  0  0  0
    5.9741    7.1925   24.0995 C   0  0  0  0  0  0  0  0  0  0  0  0
    5.3629    8.3933   24.8728 C   0  0  0  0  0  0  0  0  0  0  0  0
    5.7950    9.5120   24.8563 O   0  0  0  0  0  0  0  0  0  0  0  0
    4.1390    8.0493   25.5217 O   0  0  0  0  0  0  0  0  0  0  0  0
    3.2081    9.0818   25.8795 C   0  0  0  0  0  0  0  0  0  0  0  0
    7.2491    7.6389   23.2937 C   0  0  0  0  0  0  0  0  0  0  0  0
    8.8194    7.3786   25.3339 C   0  0  0  0  0  0  0  0  0  0  0  0
   10.0025    7.7288   26.0309 C   0  0  0  0  0  0  0  0  0  0  0  0
   10.8813    8.6950   25.4710 C   0  0  0  0  0  0  0  0  0  0  0  0
   10.5776    9.2955   24.2343 C   0  0  0  0  0  0  0  0  0  0  0  0
    9.3998    8.9407   23.5479 C   0  0  0  0  0  0  0  0  0  0  0  0
    8.5045    7.9792   24.0843 C   0  0  0  0  0  0  0  0  0  0  0  0
   10.3227    7.1083   27.3213 C   0  0  0  0  0  0  0  0  0  0  0  0
    9.3514    6.8680   28.2244 N   0  0  0  0  0  0  0  0  0  0  0  0
   11.5875    6.7710   27.6115 N   0  0  0  0  0  0  0  0  0  0  0  0
    8.4194    7.1117   28.0216 H   0  0  0  0  0  0  0  0  0  0  0  0
   12.3047    6.9421   26.9591 H   0  0  0  0  0  0  0  0  0  0  0  0
   11.7990    6.3523   28.4771 H   0  0  0  0  0  0  0  0  0  0  0  0
 18 17  1  0  0  0
 17 16  1  0  0  0
 16 15  1  0  0  0
 16 11  2  0  0  0
 15 14  2  0  0  0
 11 12  1  0  0  0
 14 13  1  0  0  0
 12 13  2  0  0  0
 12  9  1  0  0  0
  9 10  1  0  0  0
  9  8  2  0  0  0
 10  5  2  0  0  0
  8  7  1  0  0  0
  5  6  1  0  0  0
  7  6  2  0  0  0
  6  1  1  0  0  0
 22 21  1  0  0  0
  2  1  1  0  0  0
  2 21  1  0  0  0
  1  3  2  0  0  0
 21 23  1  0  0  0
 28 23  1  0  0  0
 28 34  1  0  0  0
 33 34  1  0  0  0
 33 32  2  0  0  0
 23 24  1  0  0  0
 34 29  2  0  0  0
 32 31  1  0  0  0
 24 25  2  0  0  0
 24 26  1  0  0  0
 29 30  1  0  0  0
 26 27  1  0  0  0
 31 30  2  0  0  0
 30 35  1  0  0  0
 35 36  2  0  0  0
 35 37  1  0  0  0
  2  4  1  0  0  0
 18 19  1  0  0  0
 18 20  1  0  0  0
 36 38  1  0  0  0
 37 39  1  0  0  0
 37 40  1  0  0  0
M  END
> <minimizedAffinity>
-13.86973

$$$$



 40 42  0  0  0  0  0  0  0  0999 V2000
    5.1696    4.3400   22.4668 C   0  0  0  0  0  0  0  0  0  0  0  0
    5.3934    5.6868   22.2921 N   0  0  0  0  0  0  0  0  0  0  0  0
    4.4236    3.9171   23.3571 O   0  0  0  0  0  0  0  0  0  0  0  0
    5.9974    5.9703   21.5682 H   0  0  0  0  0  0  0  0  0  0  0  0
    7.0462    3.8849   20.8208 C   0  0  0  0  0  0  0  0  0  0  0  0
    5.8894    3.4389   21.5242 C   0  0  0  0  0  0  0  0  0  0  0  0
    5.4470    2.0985   21.2951 C   0  0  0  0  0  0  0  0  0  0  0  0
    6.1449    1.2475   20.3951 C   0  0  0  0  0  0  0  0  0  0  0  0
    7.2947    1.6951   19.6978 C   0  0  0  0  0  0  0  0  0  0  0  0
    7.7286    3.0270   19.9291 C   0  0  0  0  0  0  0  0  0  0  0  0
    7.3553    0.0689   17.7263 C   0  0  0  0  0  0  0  0  0  0  0  0
    8.0396    0.7895   18.7369 C   0  0  0  0  0  0  0  0  0  0  0  0
    9.4461    0.6344   18.8166 C   0  0  0  0  0  0  0  0  0  0  0  0
   10.1593   -0.2053   17.9243 C   0  0  0  0  0  0  0  0  0  0  0  0
    9.4678   -0.9214   16.9187 C   0  0  0  0  0  0  0  0  0  0  0  0
    8.0572   -0.7839   16.8173 C   0  0  0  0  0  0  0  0  0  0  0  0
    7.3021   -1.5355   15.7574 C   0  0  0  0  0  0  0  0  0  0  0  0
    8.2154   -2.2284   14.8417 N   0  0  0  0  0  0  0  0  0  0  0  0
    8.7742   -2.9027   15.3645 H   0  0  0  0  0  0  0  0  0  0  0  0
    8.8317   -1.5482   14.3969 H   0  0  0  0  0  0  0  0  0  0  0  0
    4.7766    6.7221   23.1312 C   0  0  0  0  0  0  0  0  0  0  0  0
    4.1780    7.7960   22.2084 C   0  0  0  0  0  0  0  0  0  0  0  0
    5.8606    7.2966   24.1196 C   0  0  0  0  0  0  0  0  0  0  0  0
    5.2026    8.4057   24.9857 C   0  0  0  0  0  0  0  0  0  0  0  0
    5.6236    9.5223   25.1071 O   0  0  0  0  0  0  0  0  0  0  0  0
    3.9540    7.9887   25.5373 O   0  0  0  0  0  0  0  0  0  0  0  0
    2.9389    8.9638   25.8195 C   0  0  0  0  0  0  0  0  0  0  0  0
    7.0982    7.8646   23.3321 C   0  0  0  0  0  0  0  0  0  0  0  0
    8.6893    7.4139   25.3224 C   0  0  0  0  0  0  0  0  0  0  0  0
    9.9080    7.6540   26.0046 C   0  0  0  0  0  0  0  0  0  0  0  0
   10.8390    8.5811   25.4633 C   0  0  0  0  0  0  0  0  0  0  0  0
   10.5513    9.2517   24.2593 C   0  0  0  0  0  0  0  0  0  0  0  0
    9.3379    9.0062   23.5873 C   0  0  0  0  0  0  0  0  0  0  0  0
    8.3902    8.0860   24.1057 C   0  0  0  0  0  0  0  0  0  0  0  0
   10.2118    6.9600   27.2611 C   0  0  0  0  0  0  0  0  0  0  0  0
   11.4269    6.4132   27.4639 N   0  0  0  0  0  0  0  0  0  0  0  0
    9.2812    6.8674   28.2219 N   0  0  0  0  0  0  0  0  0  0  0  0
   12.1176    6.4753   26.7651 H   0  0  0  0  0  0  0  0  0  0  0  0
    8.3904    7.2633   28.0842 H   0  0  0  0  0  0  0  0  0  0  0  0
    9.4887    6.4036   29.0651 H   0  0  0  0  0  0  0  0  0  0  0  0
 18 17  1  0  0  0
 17 16  1  0  0  0
 16 15  1  0  0  0
 16 11  2  0  0  0
 15 14  2  0  0  0
 11 12  1  0  0  0
 14 13  1  0  0  0
 12 13  2  0  0  0
 12  9  1  0  0  0
  9 10  1  0  0  0
  9  8  2  0  0  0
 10  5  2  0  0  0
  8  7  1  0  0  0
  5  6  1  0  0  0
  7  6  2  0  0  0
  6  1  1  0  0  0
 22 21  1  0  0  0
  2  1  1  0  0  0
  2 21  1  0  0  0
  1  3  2  0  0  0
 21 23  1  0  0  0
 28 23  1  0  0  0
 28 34  1  0  0  0
 33 34  1  0  0  0
 33 32  2  0  0  0
 23 24  1  0  0  0
 34 29  2  0  0  0
 32 31  1  0  0  0
 24 25  2  0  0  0
 24 26  1  0  0  0
 29 30  1  0  0  0
 26 27  1  0  0  0
 31 30  2  0  0  0
 30 35  1  0  0  0
 35 36  2  0  0  0
 35 37  1  0  0  0
  2  4  1  0  0  0
 18 19  1  0  0  0
 18 20  1  0  0  0
 36 38  1  0  0  0
 37 39  1  0  0  0
 37 40  1  0  0  0
M  END
> <minimizedAffinity>
-13.82872

$$$$



 40 42  0  0  0  0  0  0  0  0999 V2000
    5.4949    4.2912   22.3809 C   0  0  0  0  0  0  0  0  0  0  0  0
    5.8501    5.6138   22.2432 N   0  0  0  0  0  0  0  0  0  0  0  0
    4.6915    3.9225   23.2450 O   0  0  0  0  0  0  0  0  0  0  0  0
    6.4950    5.8538   21.5391 H   0  0  0  0  0  0  0  0  0  0  0  0
    7.2818    3.7414   20.6655 C   0  0  0  0  0  0  0  0  0  0  0  0
    6.1472    3.3459   21.4325 C   0  0  0  0  0  0  0  0  0  0  0  0
    5.6603    2.0124   21.2611 C   0  0  0  0  0  0  0  0  0  0  0  0
    6.2940    1.1189   20.3549 C   0  0  0  0  0  0  0  0  0  0  0  0
    7.4219    1.5163   19.5942 C   0  0  0  0  0  0  0  0  0  0  0  0
    7.9003    2.8416   19.7684 C   0  0  0  0  0  0  0  0  0  0  0  0
    9.4585    0.1998   18.7855 C   0  0  0  0  0  0  0  0  0  0  0  0
    8.0984    0.5654   18.6265 C   0  0  0  0  0  0  0  0  0  0  0  0
    7.3923    0.0091   17.5308 C   0  0  0  0  0  0  0  0  0  0  0  0
    8.0079   -0.8845   16.6182 C   0  0  0  0  0  0  0  0  0  0  0  0
    9.3664   -1.2435   16.7845 C   0  0  0  0  0  0  0  0  0  0  0  0
   10.0974   -0.6994   17.8748 C   0  0  0  0  0  0  0  0  0  0  0  0
   11.5416   -1.0663   18.0704 C   0  0  0  0  0  0  0  0  0  0  0  0
   11.9284   -2.1886   17.2081 N   0  0  0  0  0  0  0  0  0  0  0  0
   11.8026   -1.9254   16.2307 H   0  0  0  0  0  0  0  0  0  0  0  0
   11.3443   -2.9974   17.4202 H   0  0  0  0  0  0  0  0  0  0  0  0
    5.3154    6.6849   23.0935 C   0  0  0  0  0  0  0  0  0  0  0  0
    3.8429    6.9111   22.7138 C   0  0  0  0  0  0  0  0  0  0  0  0
    6.2012    7.9754   22.9134 C   0  0  0  0  0  0  0  0  0  0  0  0
    7.4789    7.5918   22.1175 C   0  0  0  0  0  0  0  0  0  0  0  0
    8.2496    6.7280   22.4312 O   0  0  0  0  0  0  0  0  0  0  0  0
    7.5800    8.3045   20.8850 O   0  0  0  0  0  0  0  0  0  0  0  0
    8.8733    8.6459   20.3638 C   0  0  0  0  0  0  0  0  0  0  0  0
    6.5786    8.6000   24.3069 C   0  0  0  0  0  0  0  0  0  0  0  0
    8.4882    7.7053   25.8064 C   0  0  0  0  0  0  0  0  0  0  0  0
    9.8567    7.6774   26.1735 C   0  0  0  0  0  0  0  0  0  0  0  0
   10.7843    8.4906   25.4682 C   0  0  0  0  0  0  0  0  0  0  0  0
   10.3451    9.3138   24.4138 C   0  0  0  0  0  0  0  0  0  0  0  0
    8.9831    9.3346   24.0551 C   0  0  0  0  0  0  0  0  0  0  0  0
    8.0353    8.5330   24.7428 C   0  0  0  0  0  0  0  0  0  0  0  0
   10.3195    6.8235   27.2731 C   0  0  0  0  0  0  0  0  0  0  0  0
   11.6149    6.8302   27.6458 N   0  0  0  0  0  0  0  0  0  0  0  0
    9.4540    6.0301   27.9206 N   0  0  0  0  0  0  0  0  0  0  0  0
   12.2589    7.4090   27.1772 H   0  0  0  0  0  0  0  0  0  0  0  0
    8.5056    6.0175   27.6566 H   0  0  0  0  0  0  0  0  0  0  0  0
    9.7668    5.4603   28.6599 H   0  0  0  0  0  0  0  0  0  0  0  0
 18 17  1  0  0  0
 17 16  1  0  0  0
 16 15  1  0  0  0
 16 11  2  0  0  0
 15 14  2  0  0  0
 11 12  1  0  0  0
 14 13  1  0  0  0
 12 13  2  0  0  0
 12  9  1  0  0  0
  9 10  1  0  0  0
  9  8  2  0  0  0
 10  5  2  0  0  0
  8  7  1  0  0  0
  5  6  1  0  0  0
  7  6  2  0  0  0
  6  1  1  0  0  0
 22 21  1  0  0  0
  2  1  1  0  0  0
  2 21  1  0  0  0
  1  3  2  0  0  0
 21 23  1  0  0  0
 28 23  1  0  0  0
 28 34  1  0  0  0
 33 34  1  0  0  0
 33 32  2  0  0  0
 23 24  1  0  0  0
 34 29  2  0  0  0
 32 31  1  0  0  0
 24 25  2  0  0  0
 24 26  1  0  0  0
 29 30  1  0  0  0
 26 27  1  0  0  0
 31 30  2  0  0  0
 30 35  1  0  0  0
 35 36  2  0  0  0
 35 37  1  0  0  0
  2  4  1  0  0  0
 18 19  1  0  0  0
 18 20  1  0  0  0
 36 38  1  0  0  0
 37 39  1  0  0  0
 37 40  1  0  0  0
M  END
> <minimizedAffinity>
-12.85327

$$$$
