
 OpenBabel07192215303D

 34 38  0  0  0  0  0  0  0  0999 V2000
    5.9409    3.4802   21.4081 N   0  0  0  0  0  0  0  0  0  0  0  0
    6.7477    4.5081   21.0633 C   0  0  0  0  0  0  0  0  0  0  0  0
    5.9263    5.7858   21.0794 C   0  0  2  0  0  0  0  0  0  0  0  0
    4.4840    5.2660   21.0450 C   0  0  0  0  0  0  0  0  0  0  0  0
    4.5579    3.8893   21.6760 C   0  0  0  0  0  0  0  0  0  0  0  0
    7.9397    4.4529   20.7863 O   0  0  0  0  0  0  0  0  0  0  0  0
    6.2333    6.6095   19.9316 N   0  0  0  0  0  0  0  0  0  0  0  0
    6.9418    6.1189   19.3860 H   0  0  0  0  0  0  0  0  0  0  0  0
    6.8237    8.2149   20.2218 S   0  0  0  0  0  0  0  0  0  0  0  0
    5.5721    8.9340   20.3165 O   0  0  0  0  0  0  0  0  0  0  0  0
    7.7235    8.4566   19.1242 O   0  0  0  0  0  0  0  0  0  0  0  0
    8.6545    8.0650   24.0291 C   0  0  0  0  0  0  0  0  0  0  0  0
    9.0629    7.8946   25.3447 C   0  0  0  0  0  0  0  0  0  0  0  0
   10.2931    8.4295   25.8151 C   0  0  0  0  0  0  0  0  0  0  0  0
   11.1061    9.1536   24.9082 C   0  0  0  0  0  0  0  0  0  0  0  0
   10.7231    9.3303   23.6107 N   0  0  0  0  0  0  0  0  0  0  0  0
    9.5258    8.8097   23.1532 C   0  0  0  0  0  0  0  0  0  0  0  0
    8.9381    8.8868   21.8146 C   0  0  0  0  0  0  0  0  0  0  0  0
    7.6993    8.2314   21.7368 C   0  0  0  0  0  0  0  0  0  0  0  0
    7.2552    7.5338   23.2423 S   0  0  0  0  0  0  0  0  0  0  0  0
    6.3625    2.0742   21.5288 C   0  0  0  0  0  0  0  0  0  0  0  0
    5.2647    1.1290   19.3985 C   0  0  0  0  0  0  0  0  0  0  0  0
    5.3709    0.4671   18.1489 C   0  0  0  0  0  0  0  0  0  0  0  0
    6.6500    0.0546   17.6469 C   0  0  0  0  0  0  0  0  0  0  0  0
    7.8722    0.3049   18.4057 C   0  0  0  0  0  0  0  0  0  0  0  0
    7.7948    0.9614   19.6496 C   0  0  0  0  0  0  0  0  0  0  0  0
    6.4268    1.4022   20.1859 C   0  0  0  0  0  0  0  0  0  0  0  0
    6.7348   -0.6137   16.3922 C   0  0  0  0  0  0  0  0  0  0  0  0
    8.0121   -1.0019   15.9440 C   0  0  0  0  0  0  0  0  0  0  0  0
    9.1684   -0.7697   16.6531 N   0  0  0  0  0  0  0  0  0  0  0  0
    9.1142   -0.1253   17.8683 C   0  0  0  0  0  0  0  0  0  0  0  0
   10.2898    0.0606   18.4933 N   0  0  0  0  0  0  0  0  0  0  0  0
   10.3168    0.5154   19.3660 H   0  0  0  0  0  0  0  0  0  0  0  0
   11.1238   -0.2581   18.0783 H   0  0  0  0  0  0  0  0  0  0  0  0
  1  2  1  0  0  0  0
  1 21  1  0  0  0  0
  2  6  2  0  0  0  0
  3  7  1  6  0  0  0
  3  2  1  0  0  0  0
  4  5  1  0  0  0  0
  4  3  1  0  0  0  0
  5  1  1  0  0  0  0
  7  8  1  0  0  0  0
  9  7  1  0  0  0  0
  9 11  2  0  0  0  0
 10  9  2  0  0  0  0
 12 20  1  0  0  0  0
 13 12  1  0  0  0  0
 14 13  2  0  0  0  0
 15 16  2  0  0  0  0
 15 14  1  0  0  0  0
 16 17  1  0  0  0  0
 17 18  1  0  0  0  0
 17 12  2  0  0  0  0
 18 19  2  0  0  0  0
 19 20  1  0  0  0  0
 19  9  1  0  0  0  0
 21 27  1  0  0  0  0
 22 23  2  0  0  0  0
 22 27  1  0  0  0  0
 23 24  1  0  0  0  0
 24 28  2  0  0  0  0
 24 25  1  0  0  0  0
 25 31  2  0  0  0  0
 26 25  1  0  0  0  0
 27 26  2  0  0  0  0
 28 29  1  0  0  0  0
 29 30  2  0  0  0  0
 31 30  1  0  0  0  0
 31 32  1  0  0  0  0
 32 33  1  0  0  0  0
 32 34  1  0  0  0  0
M  END
>  <minimizedAffinity>
-10.46840

$$$$
