


 34 38  0  0  0  0  0  0  0  0999 V2000
    5.6544    6.1019   22.5874 N   0  0  0  0  0  0  0  0  0  0  0  0
    4.9265    4.9718   22.7269 C   0  0  0  0  0  0  0  0  0  0  0  0
    5.3543    3.9921   21.6478 C   0  0  0  0  0  0  0  0  0  0  0  0
    6.0852    4.8891   20.6414 C   0  0  0  0  0  0  0  0  0  0  0  0
    6.6009    6.0510   21.4679 C   0  0  0  0  0  0  0  0  0  0  0  0
    4.0679    4.7438   23.5704 O   0  0  0  0  0  0  0  0  0  0  0  0
    4.2056    3.3408   21.0593 N   0  0  0  0  0  0  0  0  0  0  0  0
    3.3891    3.6100   21.6081 H   0  0  0  0  0  0  0  0  0  0  0  0
    4.2172    1.6084   20.9648 S   0  0  0  0  0  0  0  0  0  0  0  0
    2.8955    1.3732   20.4262 O   0  0  0  0  0  0  0  0  0  0  0  0
    4.5454    1.1909   22.3030 O   0  0  0  0  0  0  0  0  0  0  0  0
    6.9784    0.3486   18.0222 C   0  0  0  0  0  0  0  0  0  0  0  0
    7.6948   -0.0895   16.9170 C   0  0  0  0  0  0  0  0  0  0  0  0
    9.1066   -0.2491   16.9633 C   0  0  0  0  0  0  0  0  0  0  0  0
    9.7808    0.0460   18.1741 C   0  0  0  0  0  0  0  0  0  0  0  0
    9.0948    0.4797   19.2708 N   0  0  0  0  0  0  0  0  0  0  0  0
    7.7209    0.6349   19.2254 C   0  0  0  0  0  0  0  0  0  0  0  0
    6.8079    1.0823   20.2788 C   0  0  0  0  0  0  0  0  0  0  0  0
    5.4715    1.1101   19.8508 C   0  0  0  0  0  0  0  0  0  0  0  0
    5.3193    0.6127   18.2139 S   0  0  0  0  0  0  0  0  0  0  0  0
    5.5537    7.2885   23.4540 C   0  0  0  0  0  0  0  0  0  0  0  0
    7.5260    8.8620   22.9333 C   0  0  0  0  0  0  0  0  0  0  0  0
    8.8183    9.3588   23.2396 C   0  0  0  0  0  0  0  0  0  0  0  0
    9.5368    8.8712   24.3817 C   0  0  0  0  0  0  0  0  0  0  0  0
    8.9587    7.8549   25.2565 C   0  0  0  0  0  0  0  0  0  0  0  0
    7.6759    7.3452   24.9752 C   0  0  0  0  0  0  0  0  0  0  0  0
    6.9082    7.8669   23.7538 C   0  0  0  0  0  0  0  0  0  0  0  0
   10.8359    9.3790   24.6691 C   0  0  0  0  0  0  0  0  0  0  0  0
   11.5022    8.8665   25.7989 C   0  0  0  0  0  0  0  0  0  0  0  0
   10.9642    7.9089   26.6280 N   0  0  0  0  0  0  0  0  0  0  0  0
    9.7102    7.4019   26.3729 C   0  0  0  0  0  0  0  0  0  0  0  0
    9.2614    6.4708   27.2325 N   0  0  0  0  0  0  0  0  0  0  0  0
    8.3715    6.0700   27.1035 H   0  0  0  0  0  0  0  0  0  0  0  0
    9.8226    6.1899   27.9910 H   0  0  0  0  0  0  0  0  0  0  0  0
 15 16  2  0  0  0
 15 14  1  0  0  0
 16 17  1  0  0  0
 14 13  2  0  0  0
 17 18  1  0  0  0
 17 12  2  0  0  0
 13 12  1  0  0  0
 18 19  2  0  0  0
 12 20  1  0  0  0
  4  5  1  0  0  0
  4  3  1  0  0  0
 19 20  1  0  0  0
 19  9  1  0  0  0
 10  9  2  0  0  0
  5  1  1  0  0  0
  9  7  1  0  0  0
  9 11  2  0  0  0
  7  3  1  0  0  0
  3  2  1  0  0  0
  1  2  1  0  0  0
  1 21  1  0  0  0
 22 23  2  0  0  0
 22 27  1  0  0  0
  2  6  2  0  0  0
 23 24  1  0  0  0
 21 27  1  0  0  0
 27 26  2  0  0  0
 24 28  2  0  0  0
 24 25  1  0  0  0
 28 29  1  0  0  0
 26 25  1  0  0  0
 25 31  2  0  0  0
 29 30  2  0  0  0
 31 30  1  0  0  0
 31 32  1  0  0  0
  7  8  1  0  0  0
 32 33  1  0  0  0
 32 34  1  0  0  0
M  END
> <minimizedAffinity>
-11.09488

$$$$



 34 38  0  0  0  0  0  0  0  0999 V2000
    6.2744    3.6000   21.4885 N   0  0  0  0  0  0  0  0  0  0  0  0
    5.1976    4.3051   21.9003 C   0  0  0  0  0  0  0  0  0  0  0  0
    5.4319    5.7697   21.5724 C   0  0  0  0  0  0  0  0  0  0  0  0
    6.9458    5.8292   21.3348 C   0  0  0  0  0  0  0  0  0  0  0  0
    7.3170    4.4319   20.8779 C   0  0  0  0  0  0  0  0  0  0  0  0
    4.1893    3.8678   22.4414 O   0  0  0  0  0  0  0  0  0  0  0  0
    5.0219    6.6150   22.6712 N   0  0  0  0  0  0  0  0  0  0  0  0
    4.0020    6.6257   22.6825 H   0  0  0  0  0  0  0  0  0  0  0  0
    5.5564    8.2656   22.6660 S   0  0  0  0  0  0  0  0  0  0  0  0
    4.5024    8.8778   23.4449 O   0  0  0  0  0  0  0  0  0  0  0  0
    5.7063    8.5766   21.2683 O   0  0  0  0  0  0  0  0  0  0  0  0
    9.4049    8.7289   24.3524 C   0  0  0  0  0  0  0  0  0  0  0  0
   10.7097    9.0248   24.7224 C   0  0  0  0  0  0  0  0  0  0  0  0
   11.3005    8.4516   25.8814 C   0  0  0  0  0  0  0  0  0  0  0  0
   10.5274    7.5570   26.6622 C   0  0  0  0  0  0  0  0  0  0  0  0
    9.2427    7.2550   26.3162 N   0  0  0  0  0  0  0  0  0  0  0  0
    8.6679    7.8129   25.1883 C   0  0  0  0  0  0  0  0  0  0  0  0
    7.3205    7.6213   24.6489 C   0  0  0  0  0  0  0  0  0  0  0  0
    7.1042    8.3625   23.4768 C   0  0  0  0  0  0  0  0  0  0  0  0
    8.4923    9.2737   23.0373 S   0  0  0  0  0  0  0  0  0  0  0  0
    6.4289    2.1401   21.6071 C   0  0  0  0  0  0  0  0  0  0  0  0
    5.2493    1.2540   19.4952 C   0  0  0  0  0  0  0  0  0  0  0  0
    5.3027    0.5985   18.2389 C   0  0  0  0  0  0  0  0  0  0  0  0
    6.5539    0.1419   17.7056 C   0  0  0  0  0  0  0  0  0  0  0  0
    7.8011    0.3396   18.4387 C   0  0  0  0  0  0  0  0  0  0  0  0
    7.7761    0.9888   19.6886 C   0  0  0  0  0  0  0  0  0  0  0  0
    6.4380    1.4768   20.2584 C   0  0  0  0  0  0  0  0  0  0  0  0
    6.5856   -0.5192   16.4446 C   0  0  0  0  0  0  0  0  0  0  0  0
    7.8370   -0.9519   15.9654 C   0  0  0  0  0  0  0  0  0  0  0  0
    9.0166   -0.7693   16.6502 N   0  0  0  0  0  0  0  0  0  0  0  0
    9.0138   -0.1330   17.8707 C   0  0  0  0  0  0  0  0  0  0  0  0
   10.2090    0.0034   18.4707 N   0  0  0  0  0  0  0  0  0  0  0  0
   10.2725    0.4499   19.3458 H   0  0  0  0  0  0  0  0  0  0  0  0
   11.0209   -0.3434   18.0349 H   0  0  0  0  0  0  0  0  0  0  0  0
 15 16  2  0  0  0
 15 14  1  0  0  0
 16 17  1  0  0  0
 14 13  2  0  0  0
 17 18  1  0  0  0
 17 12  2  0  0  0
 13 12  1  0  0  0
 18 19  2  0  0  0
 12 20  1  0  0  0
  4  5  1  0  0  0
  4  3  1  0  0  0
 19 20  1  0  0  0
 19  9  1  0  0  0
 10  9  2  0  0  0
  5  1  1  0  0  0
  9  7  1  0  0  0
  9 11  2  0  0  0
  7  3  1  0  0  0
  3  2  1  0  0  0
  1  2  1  0  0  0
  1 21  1  0  0  0
 22 23  2  0  0  0
 22 27  1  0  0  0
  2  6  2  0  0  0
 23 24  1  0  0  0
 21 27  1  0  0  0
 27 26  2  0  0  0
 24 28  2  0  0  0
 24 25  1  0  0  0
 28 29  1  0  0  0
 26 25  1  0  0  0
 25 31  2  0  0  0
 29 30  2  0  0  0
 31 30  1  0  0  0
 31 32  1  0  0  0
  7  8  1  0  0  0
 32 33  1  0  0  0
 32 34  1  0  0  0
M  END
> <minimizedAffinity>
-10.89421

$$$$



 34 38  0  0  0  0  0  0  0  0999 V2000
    5.9409    3.4802   21.4081 N   0  0  0  0  0  0  0  0  0  0  0  0
    6.7477    4.5081   21.0633 C   0  0  0  0  0  0  0  0  0  0  0  0
    5.9263    5.7858   21.0794 C   0  0  0  0  0  0  0  0  0  0  0  0
    4.4840    5.2660   21.0450 C   0  0  0  0  0  0  0  0  0  0  0  0
    4.5579    3.8893   21.6760 C   0  0  0  0  0  0  0  0  0  0  0  0
    7.9397    4.4529   20.7863 O   0  0  0  0  0  0  0  0  0  0  0  0
    6.2333    6.6095   19.9316 N   0  0  0  0  0  0  0  0  0  0  0  0
    6.9418    6.1189   19.3860 H   0  0  0  0  0  0  0  0  0  0  0  0
    6.8237    8.2149   20.2218 S   0  0  0  0  0  0  0  0  0  0  0  0
    5.5721    8.9340   20.3165 O   0  0  0  0  0  0  0  0  0  0  0  0
    7.7235    8.4566   19.1242 O   0  0  0  0  0  0  0  0  0  0  0  0
    8.6545    8.0650   24.0291 C   0  0  0  0  0  0  0  0  0  0  0  0
    9.0629    7.8946   25.3447 C   0  0  0  0  0  0  0  0  0  0  0  0
   10.2931    8.4295   25.8151 C   0  0  0  0  0  0  0  0  0  0  0  0
   11.1061    9.1536   24.9082 C   0  0  0  0  0  0  0  0  0  0  0  0
   10.7231    9.3303   23.6107 N   0  0  0  0  0  0  0  0  0  0  0  0
    9.5258    8.8097   23.1532 C   0  0  0  0  0  0  0  0  0  0  0  0
    8.9381    8.8868   21.8146 C   0  0  0  0  0  0  0  0  0  0  0  0
    7.6993    8.2314   21.7368 C   0  0  0  0  0  0  0  0  0  0  0  0
    7.2552    7.5338   23.2423 S   0  0  0  0  0  0  0  0  0  0  0  0
    6.3625    2.0742   21.5288 C   0  0  0  0  0  0  0  0  0  0  0  0
    5.2647    1.1290   19.3985 C   0  0  0  0  0  0  0  0  0  0  0  0
    5.3709    0.4671   18.1489 C   0  0  0  0  0  0  0  0  0  0  0  0
    6.6500    0.0546   17.6469 C   0  0  0  0  0  0  0  0  0  0  0  0
    7.8722    0.3049   18.4057 C   0  0  0  0  0  0  0  0  0  0  0  0
    7.7948    0.9614   19.6496 C   0  0  0  0  0  0  0  0  0  0  0  0
    6.4268    1.4022   20.1859 C   0  0  0  0  0  0  0  0  0  0  0  0
    6.7348   -0.6137   16.3922 C   0  0  0  0  0  0  0  0  0  0  0  0
    8.0121   -1.0019   15.9440 C   0  0  0  0  0  0  0  0  0  0  0  0
    9.1684   -0.7697   16.6531 N   0  0  0  0  0  0  0  0  0  0  0  0
    9.1142   -0.1253   17.8683 C   0  0  0  0  0  0  0  0  0  0  0  0
   10.2898    0.0606   18.4933 N   0  0  0  0  0  0  0  0  0  0  0  0
   10.3168    0.5154   19.3660 H   0  0  0  0  0  0  0  0  0  0  0  0
   11.1238   -0.2581   18.0783 H   0  0  0  0  0  0  0  0  0  0  0  0
 15 16  2  0  0  0
 15 14  1  0  0  0
 16 17  1  0  0  0
 14 13  2  0  0  0
 17 18  1  0  0  0
 17 12  2  0  0  0
 13 12  1  0  0  0
 18 19  2  0  0  0
 12 20  1  0  0  0
  4  5  1  0  0  0
  4  3  1  0  0  0
 19 20  1  0  0  0
 19  9  1  0  0  0
 10  9  2  0  0  0
  5  1  1  0  0  0
  9  7  1  0  0  0
  9 11  2  0  0  0
  7  3  1  0  0  0
  3  2  1  0  0  0
  1  2  1  0  0  0
  1 21  1  0  0  0
 22 23  2  0  0  0
 22 27  1  0  0  0
  2  6  2  0  0  0
 23 24  1  0  0  0
 21 27  1  0  0  0
 27 26  2  0  0  0
 24 28  2  0  0  0
 24 25  1  0  0  0
 28 29  1  0  0  0
 26 25  1  0  0  0
 25 31  2  0  0  0
 29 30  2  0  0  0
 31 30  1  0  0  0
 31 32  1  0  0  0
  7  8  1  0  0  0
 32 33  1  0  0  0
 32 34  1  0  0  0
M  END
> <minimizedAffinity>
-10.46840

$$$$
