
 OpenBabel07192215303D

 43 46  0  0  0  0  0  0  0  0999 V2000
    5.1418    4.8746   20.9688 C   0  0  2  0  0  0  0  0  0  0  0  0
    4.3376    5.8762   21.2062 F   0  0  0  0  0  0  0  0  0  0  0  0
    4.7751    3.5460   21.2863 C   0  0  0  0  0  0  0  0  0  0  0  0
    5.6972    2.5060   20.9890 C   0  0  0  0  0  0  0  0  0  0  0  0
    5.4221    1.2723   21.2461 F   0  0  0  0  0  0  0  0  0  0  0  0
    6.9304    2.8147   20.4015 C   0  0  0  0  0  0  0  0  0  0  0  0
    7.2225    4.0761   20.1345 N   0  0  0  0  0  0  0  0  0  0  0  0
    6.4068    5.1114   20.3892 C   0  0  0  0  0  0  0  0  0  0  0  0
    3.5564    3.2781   21.8576 N   0  0  0  0  0  0  0  0  0  0  0  0
    2.4477    2.8719   21.0213 C   0  0  0  0  0  0  0  0  0  0  0  0
    3.3834    3.3906   23.3094 C   0  0  0  0  0  0  0  0  0  0  0  0
    2.5992    2.2967   23.9968 C   0  0  0  0  0  0  0  0  0  0  0  0
    3.0326    1.1086   24.1197 O   0  0  0  0  0  0  0  0  0  0  0  0
    1.3721    2.5782   24.5335 O   0  0  0  0  0  0  0  0  0  0  0  0
    1.0174    3.4426   24.4639 H   0  0  0  0  0  0  0  0  0  0  0  0
    6.8074    6.3373   20.0766 O   0  0  0  0  0  0  0  0  0  0  0  0
    8.4933    8.2872   19.0273 O   0  0  0  0  0  0  0  0  0  0  0  0
    7.5624    7.1356   20.8313 C   0  0  0  0  0  0  0  0  0  0  0  0
    7.4955    6.9471   22.2133 C   0  0  0  0  0  0  0  0  0  0  0  0
    8.2613    7.7334   23.1066 C   0  0  0  0  0  0  0  0  0  0  0  0
    9.1162    8.7357   22.5539 C   0  0  0  0  0  0  0  0  0  0  0  0
    9.1917    8.9213   21.1636 C   0  0  0  0  0  0  0  0  0  0  0  0
    8.4144    8.1156   20.2967 C   0  0  0  0  0  0  0  0  0  0  0  0
    9.0639    8.9431   18.6778 H   0  0  0  0  0  0  0  0  0  0  0  0
    8.1583    7.5167   24.4769 C   0  0  0  0  0  0  0  0  0  0  0  0
    7.1899    6.7334   24.9990 N   0  0  0  0  0  0  0  0  0  0  0  0
    9.0118    8.0249   25.3549 N   0  0  0  0  0  0  0  0  0  0  0  0
    6.5191    6.3205   24.4085 H   0  0  0  0  0  0  0  0  0  0  0  0
    7.1548    6.5753   25.9701 H   0  0  0  0  0  0  0  0  0  0  0  0
    9.7452    8.6060   25.0488 H   0  0  0  0  0  0  0  0  0  0  0  0
    7.7608    1.8449   20.1188 O   0  0  0  0  0  0  0  0  0  0  0  0
    8.0006    1.1133   19.0360 C   0  0  0  0  0  0  0  0  0  0  0  0
    9.3246    0.6100   18.9098 C   0  0  0  0  0  0  0  0  0  0  0  0
    9.6825   -0.1698   17.7939 C   0  0  0  0  0  0  0  0  0  0  0  0
    8.7187   -0.4371   16.8088 C   0  0  0  0  0  0  0  0  0  0  0  0
    7.3903    0.0638   16.9342 C   0  0  0  0  0  0  0  0  0  0  0  0
    7.0550    0.8348   18.0477 C   0  0  0  0  0  0  0  0  0  0  0  0
    6.4260   -0.2135   15.9687 C   0  0  0  0  0  0  0  0  0  0  0  0
    5.9227    0.5731   15.0020 N   0  0  0  0  0  0  0  0  0  0  0  0
    6.2547    1.9222   14.7102 C   0  0  0  0  0  0  0  0  0  0  0  0
    5.8595   -1.4285   15.9187 N   0  0  0  0  0  0  0  0  0  0  0  0
    4.9554   -0.1330   14.2385 C   0  0  0  0  0  0  0  0  0  0  0  0
    4.9118   -1.5321   14.8868 C   0  0  0  0  0  0  0  0  0  0  0  0
  1  8  1  0  0  0  0
  1  2  1  1  0  0  0
  3  1  1  0  0  0  0
  4  3  2  0  0  0  0
  4  6  1  0  0  0  0
  5  4  1  0  0  0  0
  6  7  2  0  0  0  0
  7  8  2  0  0  0  0
  8 16  1  0  0  0  0
  9 11  1  0  0  0  0
  9  3  1  0  0  0  0
 10  9  1  0  0  0  0
 11 12  1  0  0  0  0
 12 13  2  0  0  0  0
 12 14  1  0  0  0  0
 14 15  1  0  0  0  0
 16 18  1  0  0  0  0
 17 23  1  0  0  0  0
 17 24  1  0  0  0  0
 18 19  1  0  0  0  0
 19 20  2  0  0  0  0
 20 25  1  0  0  0  0
 21 20  1  0  0  0  0
 22 21  2  0  0  0  0
 23 22  1  0  0  0  0
 23 18  2  0  0  0  0
 25 27  2  0  0  0  0
 25 26  1  0  0  0  0
 26 28  1  0  0  0  0
 26 29  1  0  0  0  0
 27 30  1  0  0  0  0
 31  6  1  0  0  0  0
 32 31  1  0  0  0  0
 32 33  1  0  0  0  0
 34 33  2  0  0  0  0
 35 34  1  0  0  0  0
 36 37  1  0  0  0  0
 36 35  2  0  0  0  0
 37 32  2  0  0  0  0
 38 36  1  0  0  0  0
 39 38  1  0  0  0  0
 39 40  1  0  0  0  0
 41 38  2  0  0  0  0
 42 39  1  0  0  0  0
 43 42  2  0  0  0  0
 43 41  1  0  0  0  0
M  END
>  <minimizedAffinity>
-11.56167

$$$$
