
 OpenBabel07192215303D

 43 47  0  0  0  0  0  0  0  0999 V2000
    8.3168    6.7210   20.5753 N   0  0  0  0  0  0  0  0  0  0  0  0
    7.6945    7.8423   21.1405 C   0  0  0  0  0  0  0  0  0  0  0  0
    6.4519    7.7150   21.8171 N   0  0  0  0  0  0  0  0  0  0  0  0
    6.2786    6.3350   21.6493 C   0  0  0  0  0  0  0  0  0  0  0  0
    7.4085    5.7507   20.9033 C   0  0  0  0  0  0  0  0  0  0  0  0
    5.1810    5.4719   22.0965 C   0  0  0  0  0  0  0  0  0  0  0  0
    5.2215    4.0813   21.7996 C   0  0  0  0  0  0  0  0  0  0  0  0
    6.3282    3.4518   21.0527 C   0  0  0  0  0  0  0  0  0  0  0  0
    7.4418    4.3177   20.6075 C   0  0  0  0  0  0  0  0  0  0  0  0
    5.5722    8.7333   22.4991 C   0  0  0  0  0  0  0  0  0  0  0  0
    4.9378    1.0923   20.9116 C   0  0  0  0  0  0  0  0  0  0  0  0
    6.2284    0.8402   21.6791 C   0  0  0  0  0  0  0  0  0  0  0  0
    6.1962    1.9108   20.5757 C   0  0  0  0  0  0  0  0  0  0  0  0
    6.4620    1.8272   18.9990 C   0  0  0  0  0  0  0  0  0  0  0  0
    5.7693    2.5432   18.1392 N   0  0  0  0  0  0  0  0  0  0  0  0
    7.3514    0.0736   17.2953 N   0  0  0  0  0  0  0  0  0  0  0  0
    7.6243    0.9427   18.4141 C   0  0  0  0  0  0  0  0  0  0  0  0
    8.9760    0.9814   18.9431 C   0  0  0  0  0  0  0  0  0  0  0  0
    9.9962    0.1538   18.3438 C   0  0  0  0  0  0  0  0  0  0  0  0
    9.7085   -0.7157   17.2279 C   0  0  0  0  0  0  0  0  0  0  0  0
    8.3779   -0.7558   16.6985 C   0  0  0  0  0  0  0  0  0  0  0  0
    4.6696    3.4680   18.5382 O   0  0  0  0  0  0  0  0  0  0  0  0
    4.5872    4.5600   17.6076 C   0  0  0  0  0  0  0  0  0  0  0  0
    4.4821    5.8981   18.3728 C   0  0  0  0  0  0  0  0  0  0  0  0
    3.5653    6.0406   19.2016 O   0  0  0  0  0  0  0  0  0  0  0  0
    5.4145    6.9017   18.1086 O   0  0  0  0  0  0  0  0  0  0  0  0
    6.0286    9.2624   18.0337 C   0  0  0  0  0  0  0  0  0  0  0  0
    4.9686    8.2312   18.4644 C   0  0  0  0  0  0  0  0  0  0  0  0
    8.4099    9.2104   20.9725 C   0  0  0  0  0  0  0  0  0  0  0  0
    8.9452    9.8026   22.2482 N   0  0  0  0  0  0  0  0  0  0  0  0
    9.0872   10.7766   22.2306 H   0  0  0  0  0  0  0  0  0  0  0  0
    9.8947    7.7797   26.0505 C   0  0  0  0  0  0  0  0  0  0  0  0
   10.9228    8.5220   25.3071 C   0  0  0  0  0  0  0  0  0  0  0  0
   10.6325    9.1858   24.0748 C   0  0  0  0  0  0  0  0  0  0  0  0
    9.2858    9.1464   23.5105 C   0  0  0  0  0  0  0  0  0  0  0  0
    8.2403    8.4313   24.2101 C   0  0  0  0  0  0  0  0  0  0  0  0
    8.5338    7.7575   25.4565 C   0  0  0  0  0  0  0  0  0  0  0  0
   11.4454    6.7919   27.6285 N   0  0  0  0  0  0  0  0  0  0  0  0
    9.3335    6.6527   28.1297 N   0  0  0  0  0  0  0  0  0  0  0  0
   10.2132    7.1196   27.2586 C   0  0  0  0  0  0  0  0  0  0  0  0
   12.2142    7.0688   27.0795 H   0  0  0  0  0  0  0  0  0  0  0  0
   11.5903    6.2719   28.4518 H   0  0  0  0  0  0  0  0  0  0  0  0
    8.3720    6.8145   27.9932 H   0  0  0  0  0  0  0  0  0  0  0  0
  2  1  2  0  0  0  0
  2 29  1  0  0  0  0
  3  2  1  0  0  0  0
  4  3  1  0  0  0  0
  4  5  1  0  0  0  0
  5  9  2  0  0  0  0
  5  1  1  0  0  0  0
  6  7  1  0  0  0  0
  6  4  2  0  0  0  0
  7  8  2  0  0  0  0
  8 13  1  0  0  0  0
  8  9  1  0  0  0  0
 10  3  1  0  0  0  0
 11 12  1  0  0  0  0
 13 11  1  0  0  0  0
 13 12  1  0  0  0  0
 14 13  1  0  0  0  0
 15 22  1  0  0  0  0
 15 14  2  0  0  0  0
 16 17  1  0  0  0  0
 17 14  1  0  0  0  0
 17 18  2  0  0  0  0
 19 18  1  0  0  0  0
 20 19  2  0  0  0  0
 21 16  2  0  0  0  0
 21 20  1  0  0  0  0
 23 22  1  0  0  0  0
 24 23  1  0  0  0  0
 24 26  1  0  0  0  0
 25 24  2  0  0  0  0
 28 26  1  0  0  0  0
 28 27  1  0  0  0  0
 29 30  1  0  0  0  0
 30 35  1  0  0  0  0
 30 31  1  0  0  0  0
 32 40  1  0  0  0  0
 33 32  1  0  0  0  0
 34 33  2  0  0  0  0
 35 36  2  0  0  0  0
 35 34  1  0  0  0  0
 36 37  1  0  0  0  0
 37 32  2  0  0  0  0
 38 41  1  0  0  0  0
 38 42  1  0  0  0  0
 39 43  1  0  0  0  0
 40 39  2  0  0  0  0
 40 38  1  0  0  0  0
M  END
>  <minimizedAffinity>
-11.85141

$$$$
