
 OpenBabel07192215303D

 43 47  0  0  0  0  0  0  0  0999 V2000
    8.5340    6.5215   20.8442 N   0  0  0  0  0  0  0  0  0  0  0  0
    7.9598    7.7814   20.6278 C   0  0  0  0  0  0  0  0  0  0  0  0
    6.5839    7.9013   20.2956 N   0  0  0  0  0  0  0  0  0  0  0  0
    6.2611    6.5381   20.3055 C   0  0  0  0  0  0  0  0  0  0  0  0
    7.4425    5.7212   20.6393 C   0  0  0  0  0  0  0  0  0  0  0  0
    4.9774    5.8819   20.0388 C   0  0  0  0  0  0  0  0  0  0  0  0
    4.8924    4.4634   20.1026 C   0  0  0  0  0  0  0  0  0  0  0  0
    6.0474    3.6037   20.4282 C   0  0  0  0  0  0  0  0  0  0  0  0
    7.3421    4.2625   20.7067 C   0  0  0  0  0  0  0  0  0  0  0  0
    5.7228    9.1061   20.0073 C   0  0  0  0  0  0  0  0  0  0  0  0
    4.6680    1.2605   20.7845 C   0  0  0  0  0  0  0  0  0  0  0  0
    5.9695    1.1719   21.5697 C   0  0  0  0  0  0  0  0  0  0  0  0
    5.9176    1.9978   20.2735 C   0  0  0  0  0  0  0  0  0  0  0  0
    6.1639    1.5987   18.7426 C   0  0  0  0  0  0  0  0  0  0  0  0
    5.3349    1.9634   17.7881 N   0  0  0  0  0  0  0  0  0  0  0  0
    7.3839   -0.0896   17.1837 N   0  0  0  0  0  0  0  0  0  0  0  0
    7.4577    0.8197   18.3015 C   0  0  0  0  0  0  0  0  0  0  0  0
    8.7381    0.9958   18.9632 C   0  0  0  0  0  0  0  0  0  0  0  0
    9.8874    0.2597   18.4919 C   0  0  0  0  0  0  0  0  0  0  0  0
    9.7986   -0.6513   17.3755 C   0  0  0  0  0  0  0  0  0  0  0  0
    8.5393   -0.8268   16.7155 C   0  0  0  0  0  0  0  0  0  0  0  0
    4.0917    2.7488   18.0356 O   0  0  0  0  0  0  0  0  0  0  0  0
    3.6548    3.3703   16.8157 C   0  0  0  0  0  0  0  0  0  0  0  0
    4.8535    4.0379   16.1054 C   0  0  0  0  0  0  0  0  0  0  0  0
    5.5510    4.8458   16.7447 O   0  0  0  0  0  0  0  0  0  0  0  0
    5.1130    3.7162   14.7729 O   0  0  0  0  0  0  0  0  0  0  0  0
    5.8282    1.4742   14.1267 C   0  0  0  0  0  0  0  0  0  0  0  0
    6.2751    2.8758   14.5832 C   0  0  0  0  0  0  0  0  0  0  0  0
    8.8942    9.0163   20.7457 C   0  0  0  0  0  0  0  0  0  0  0  0
    8.9653    9.6237   22.1207 N   0  0  0  0  0  0  0  0  0  0  0  0
    8.7760   10.5889   22.1627 H   0  0  0  0  0  0  0  0  0  0  0  0
    9.8263    7.6685   25.9791 C   0  0  0  0  0  0  0  0  0  0  0  0
   10.8027    8.5681   25.3484 C   0  0  0  0  0  0  0  0  0  0  0  0
   10.5397    9.2124   24.0997 C   0  0  0  0  0  0  0  0  0  0  0  0
    9.2740    8.9934   23.4043 C   0  0  0  0  0  0  0  0  0  0  0  0
    8.2806    8.1192   23.9900 C   0  0  0  0  0  0  0  0  0  0  0  0
    8.5469    7.4651   25.2529 C   0  0  0  0  0  0  0  0  0  0  0  0
   11.2765    6.4458   27.4866 N   0  0  0  0  0  0  0  0  0  0  0  0
    9.2597    6.8468   28.1954 N   0  0  0  0  0  0  0  0  0  0  0  0
   10.1189    7.0324   27.2065 C   0  0  0  0  0  0  0  0  0  0  0  0
   12.0213    6.4950   26.8447 H   0  0  0  0  0  0  0  0  0  0  0  0
   11.3900    5.9616   28.3363 H   0  0  0  0  0  0  0  0  0  0  0  0
    8.3520    7.2235   28.1361 H   0  0  0  0  0  0  0  0  0  0  0  0
  2  1  2  0  0  0  0
  2 29  1  0  0  0  0
  3  2  1  0  0  0  0
  4  3  1  0  0  0  0
  4  5  1  0  0  0  0
  5  9  2  0  0  0  0
  5  1  1  0  0  0  0
  6  7  1  0  0  0  0
  6  4  2  0  0  0  0
  7  8  2  0  0  0  0
  8 13  1  0  0  0  0
  8  9  1  0  0  0  0
 10  3  1  0  0  0  0
 11 12  1  0  0  0  0
 13 11  1  0  0  0  0
 13 12  1  0  0  0  0
 14 13  1  0  0  0  0
 15 22  1  0  0  0  0
 15 14  2  0  0  0  0
 16 17  1  0  0  0  0
 17 14  1  0  0  0  0
 17 18  2  0  0  0  0
 19 18  1  0  0  0  0
 20 19  2  0  0  0  0
 21 16  2  0  0  0  0
 21 20  1  0  0  0  0
 23 22  1  0  0  0  0
 24 23  1  0  0  0  0
 24 26  1  0  0  0  0
 25 24  2  0  0  0  0
 28 26  1  0  0  0  0
 28 27  1  0  0  0  0
 29 30  1  0  0  0  0
 30 35  1  0  0  0  0
 30 31  1  0  0  0  0
 32 40  1  0  0  0  0
 33 32  1  0  0  0  0
 34 33  2  0  0  0  0
 35 36  2  0  0  0  0
 35 34  1  0  0  0  0
 36 37  1  0  0  0  0
 37 32  2  0  0  0  0
 38 41  1  0  0  0  0
 38 42  1  0  0  0  0
 39 43  1  0  0  0  0
 40 39  2  0  0  0  0
 40 38  1  0  0  0  0
M  END
>  <minimizedAffinity>
-11.67330

$$$$
