
 OpenBabel07192215303D

 36 40  0  0  0  0  0  0  0  0999 V2000
    8.0312    6.2712   20.6099 N   0  0  0  0  0  0  0  0  0  0  0  0
    7.1253    7.2587   21.0135 C   0  0  0  0  0  0  0  0  0  0  0  0
    5.8510    6.8998   21.4843 N   0  0  0  0  0  0  0  0  0  0  0  0
    5.9699    5.5219   21.3654 C   0  0  0  0  0  0  0  0  0  0  0  0
    7.2658    5.1518   20.8447 C   0  0  0  0  0  0  0  0  0  0  0  0
    5.0086    4.5072   21.6779 C   0  0  0  0  0  0  0  0  0  0  0  0
    5.3474    3.1634   21.4794 C   0  0  0  0  0  0  0  0  0  0  0  0
    6.6226    2.7859   20.9679 C   0  0  0  0  0  0  0  0  0  0  0  0
    7.5930    3.7749   20.6453 C   0  0  0  0  0  0  0  0  0  0  0  0
    4.7142    7.7318   21.9686 C   0  0  0  0  0  0  0  0  0  0  0  0
    7.5530    8.7361   20.9330 C   0  0  0  0  0  0  0  0  0  0  0  0
    7.8181    9.4149   22.2198 N   0  0  0  0  0  0  0  0  0  0  0  0
    7.5833   10.3700   22.2651 H   0  0  0  0  0  0  0  0  0  0  0  0
    9.4581    7.6671   25.8015 C   0  0  0  0  0  0  0  0  0  0  0  0
   10.2152    8.5930   25.0103 C   0  0  0  0  0  0  0  0  0  0  0  0
    9.6852    9.1641   23.8422 C   0  0  0  0  0  0  0  0  0  0  0  0
    8.3794    8.8400   23.4128 C   0  0  0  0  0  0  0  0  0  0  0  0
    7.6010    7.9334   24.1606 C   0  0  0  0  0  0  0  0  0  0  0  0
    8.1275    7.3524   25.3392 C   0  0  0  0  0  0  0  0  0  0  0  0
   11.2393    6.7078   27.0821 N   0  0  0  0  0  0  0  0  0  0  0  0
    9.3403    6.9529   28.0952 N   0  0  0  0  0  0  0  0  0  0  0  0
    9.9933    7.1040   26.9627 C   0  0  0  0  0  0  0  0  0  0  0  0
   11.8493    6.7628   26.3113 H   0  0  0  0  0  0  0  0  0  0  0  0
   11.5637    6.3558   27.9423 H   0  0  0  0  0  0  0  0  0  0  0  0
    8.3916    7.2094   28.1544 H   0  0  0  0  0  0  0  0  0  0  0  0
    6.9332    1.2890   20.7787 C   0  0  0  0  0  0  0  0  0  0  0  0
    6.8166    0.8130   19.3523 N   0  0  0  0  0  0  0  0  0  0  0  0
    7.7870    0.4491   18.3887 C   0  0  0  0  0  0  0  0  0  0  0  0
    7.4269    0.0303   17.1089 N   0  0  0  0  0  0  0  0  0  0  0  0
    6.0571    0.1284   17.2427 C   0  0  0  0  0  0  0  0  0  0  0  0
    5.6883    0.5934   18.5647 C   0  0  0  0  0  0  0  0  0  0  0  0
    5.0454   -0.1625   16.2713 C   0  0  0  0  0  0  0  0  0  0  0  0
    3.6899    0.0068   16.6249 C   0  0  0  0  0  0  0  0  0  0  0  0
    3.3219    0.4595   17.9155 C   0  0  0  0  0  0  0  0  0  0  0  0
    4.2989    0.7521   18.8929 C   0  0  0  0  0  0  0  0  0  0  0  0
    9.2733    0.4957   18.7097 C   0  0  0  0  0  0  0  0  0  0  0  0
  2  1  2  0  0  0  0
  2 11  1  0  0  0  0
  3  2  1  0  0  0  0
  4  3  1  0  0  0  0
  4  5  1  0  0  0  0
  5  1  1  0  0  0  0
  6  4  2  0  0  0  0
  7  6  1  0  0  0  0
  7  8  2  0  0  0  0
  8  9  1  0  0  0  0
  9  5  2  0  0  0  0
 10  3  1  0  0  0  0
 11 12  1  0  0  0  0
 12 17  1  0  0  0  0
 12 13  1  0  0  0  0
 14 22  1  0  0  0  0
 15 14  1  0  0  0  0
 16 15  2  0  0  0  0
 17 18  2  0  0  0  0
 17 16  1  0  0  0  0
 18 19  1  0  0  0  0
 19 14  2  0  0  0  0
 20 23  1  0  0  0  0
 20 24  1  0  0  0  0
 21 25  1  0  0  0  0
 22 21  2  0  0  0  0
 22 20  1  0  0  0  0
 26  8  1  0  0  0  0
 27 26  1  0  0  0  0
 28 27  1  0  0  0  0
 29 30  1  0  0  0  0
 29 28  2  0  0  0  0
 30 31  1  0  0  0  0
 31 27  1  0  0  0  0
 31 35  2  0  0  0  0
 32 30  2  0  0  0  0
 32 33  1  0  0  0  0
 33 34  2  0  0  0  0
 34 35  1  0  0  0  0
 36 28  1  0  0  0  0
M  END
>  <minimizedAffinity>
-11.50058

$$$$
