
 OpenBabel07192215303D

 39 43  0  0  0  0  0  0  0  0999 V2000
    3.7936    5.3503   21.9660 C   0  0  1  0  0  0  0  0  0  0  0  0
    4.4912    5.9735   23.2300 C   0  0  0  0  0  0  0  0  0  0  0  0
    4.9335    7.3883   23.0095 N   0  0  0  0  0  0  0  0  0  0  0  0
    5.5044    6.6569   20.5258 C   0  0  0  0  0  0  0  0  0  0  0  0
    6.1696    6.8932   19.5170 O   0  0  0  0  0  0  0  0  0  0  0  0
    5.6846    7.6388   21.7381 C   0  0  0  0  0  0  0  0  0  0  0  0
    4.5929    5.5402   20.6680 N   0  0  0  0  0  0  0  0  0  0  0  0
    5.3884    8.3284   24.3861 S   0  0  0  0  0  0  0  0  0  0  0  0
    4.6643    7.7289   25.6141 O   0  0  0  0  0  0  0  0  0  0  0  0
    4.8704    9.7624   24.1750 O   0  0  0  0  0  0  0  0  0  0  0  0
    7.7438    7.6169   25.7236 C   0  0  0  0  0  0  0  0  0  0  0  0
    7.1321    8.3331   24.6129 C   0  0  0  0  0  0  0  0  0  0  0  0
   10.0863    8.3802   24.9616 C   0  0  0  0  0  0  0  0  0  0  0  0
    9.4455    9.0973   23.8404 C   0  0  0  0  0  0  0  0  0  0  0  0
    8.0186    9.0699   23.6800 C   0  0  0  0  0  0  0  0  0  0  0  0
    9.1911    7.6094   25.9395 C   0  0  0  0  0  0  0  0  0  0  0  0
   13.8798    7.6774   26.5593 Cl  0  0  0  0  0  0  0  0  0  0  0  0
    9.8282    6.8945   27.0604 C   0  0  0  0  0  0  0  0  0  0  0  0
   11.5390    8.3753   25.1861 C   0  0  0  0  0  0  0  0  0  0  0  0
   11.2508    6.9256   27.2312 C   0  0  0  0  0  0  0  0  0  0  0  0
   12.1300    7.6622   26.3037 C   0  0  0  0  0  0  0  0  0  0  0  0
    3.1656    3.9814   22.3082 C   0  0  0  0  0  0  0  0  0  0  0  0
    1.9612    3.7955   22.3457 O   0  0  0  0  0  0  0  0  0  0  0  0
    4.1114    3.0169   22.5941 O   0  0  0  0  0  0  0  0  0  0  0  0
    3.6836    1.6131   22.7817 C   0  0  0  0  0  0  0  0  0  0  0  0
    3.7042    0.8673   21.4343 C   0  0  0  0  0  0  0  0  0  0  0  0
    4.4128    4.5713   19.5174 C   0  0  0  0  0  0  0  0  0  0  0  0
    7.0309    1.0725   18.6779 N   0  0  0  0  0  0  0  0  0  0  0  0
    5.7453    1.3130   17.9000 C   0  0  0  0  0  0  0  0  0  0  0  0
    7.0685    1.7383   20.0432 C   0  0  0  0  0  0  0  0  0  0  0  0
    5.6564    3.7824   18.9763 C   0  0  0  0  0  0  0  0  0  0  0  0
    5.3099    2.8092   17.7636 C   0  0  0  0  0  0  0  0  0  0  0  0
    6.7242    3.2692   20.0544 C   0  0  0  0  0  0  0  0  0  0  0  0
   10.6029   -0.4450   18.1243 C   0  0  0  0  0  0  0  0  0  0  0  0
    8.1797    0.2536   18.1306 C   0  0  0  0  0  0  0  0  0  0  0  0
    9.5509    0.3553   18.6859 C   0  0  0  0  0  0  0  0  0  0  0  0
    8.0026   -0.6960   16.9986 C   0  0  0  0  0  0  0  0  0  0  0  0
   10.4011   -1.3202   17.0674 N   0  0  0  0  0  0  0  0  0  0  0  0
    9.1355   -1.4437   16.5193 C   0  0  0  0  0  0  0  0  0  0  0  0
  1 22  1  1  0  0  0
  1  2  1  0  0  0  0
  3  2  1  0  0  0  0
  3  8  1  0  0  0  0
  4  7  1  0  0  0  0
  4  6  1  0  0  0  0
  5  4  2  0  0  0  0
  6  3  1  0  0  0  0
  7  1  1  0  0  0  0
  8 12  1  0  0  0  0
  8  9  2  0  0  0  0
 10  8  2  0  0  0  0
 11 16  1  0  0  0  0
 12 11  2  0  0  0  0
 13 19  2  0  0  0  0
 13 16  1  0  0  0  0
 14 13  1  0  0  0  0
 15 14  2  0  0  0  0
 15 12  1  0  0  0  0
 16 18  2  0  0  0  0
 18 20  1  0  0  0  0
 19 21  1  0  0  0  0
 21 17  1  0  0  0  0
 21 20  2  0  0  0  0
 22 24  1  0  0  0  0
 23 22  2  0  0  0  0
 25 24  1  0  0  0  0
 25 26  1  0  0  0  0
 27  7  1  0  0  0  0
 28 30  1  0  0  0  0
 29 28  1  0  0  0  0
 31 33  1  0  0  0  0
 31 27  1  0  0  0  0
 32 29  1  0  0  0  0
 32 31  2  0  0  0  0
 33 30  2  0  0  0  0
 34 36  1  0  0  0  0
 35 36  2  0  0  0  0
 35 28  1  0  0  0  0
 37 35  1  0  0  0  0
 38 34  2  0  0  0  0
 39 38  1  0  0  0  0
 39 37  2  0  0  0  0
M  END
>  <minimizedAffinity>
-9.92382

$$$$
