
 OpenBabel07192215303D

 30 34  0  0  0  0  0  0  0  0999 V2000
    3.5361    6.2749   22.7139 N   0  0  0  0  0  0  0  0  0  0  0  0
    3.9706    5.6867   21.5741 C   0  0  0  0  0  0  0  0  0  0  0  0
    3.6327    4.2191   21.6799 C   0  0  2  0  0  0  0  0  0  0  0  0
    3.3332    3.9918   23.1645 C   0  0  0  0  0  0  0  0  0  0  0  0
    2.9142    5.3530   23.6603 C   0  0  0  0  0  0  0  0  0  0  0  0
    4.5197    6.2387   20.6283 O   0  0  0  0  0  0  0  0  0  0  0  0
    4.7499    3.3639   21.2994 N   0  0  0  0  0  0  0  0  0  0  0  0
    5.1835    3.7873   20.4789 H   0  0  0  0  0  0  0  0  0  0  0  0
    4.4653    1.7972   20.9341 S   0  0  0  0  0  0  0  0  0  0  0  0
    3.1948    1.9388   20.2932 O   0  0  0  0  0  0  0  0  0  0  0  0
    4.5760    1.0999   22.1855 O   0  0  0  0  0  0  0  0  0  0  0  0
    7.0944    0.3651   18.0565 C   0  0  0  0  0  0  0  0  0  0  0  0
    7.7505   -0.1789   16.9189 C   0  0  0  0  0  0  0  0  0  0  0  0
    9.1767   -0.3318   16.9448 C   0  0  0  0  0  0  0  0  0  0  0  0
    9.8745    0.0722   18.1291 C   0  0  0  0  0  0  0  0  0  0  0  0
    9.2160    0.5978   19.2151 N   0  0  0  0  0  0  0  0  0  0  0  0
    7.8268    0.7486   19.1835 C   0  0  0  0  0  0  0  0  0  0  0  0
    7.0835    1.2929   20.2726 C   0  0  0  0  0  0  0  0  0  0  0  0
    5.7182    1.2850   19.8728 C   0  0  0  0  0  0  0  0  0  0  0  0
    5.4584    0.6541   18.3035 S   0  0  0  0  0  0  0  0  0  0  0  0
    3.6249    7.6967   23.0519 C   0  0  0  0  0  0  0  0  0  0  0  0
    7.0733    8.8884   22.9264 C   0  0  0  0  0  0  0  0  0  0  0  0
    7.1564    8.0982   24.1458 C   0  0  0  0  0  0  0  0  0  0  0  0
    8.3830    8.0161   24.8687 C   0  0  0  0  0  0  0  0  0  0  0  0
    9.5011    8.7337   24.3474 C   0  0  0  0  0  0  0  0  0  0  0  0
    9.3782    9.4629   23.1940 N   0  0  0  0  0  0  0  0  0  0  0  0
    8.2371    9.5740   22.4687 C   0  0  0  0  0  0  0  0  0  0  0  0
    5.8884    7.5367   24.3652 C   0  0  0  0  0  0  0  0  0  0  0  0
    5.0906    7.9928   23.2965 C   0  0  0  0  0  0  0  0  0  0  0  0
    5.7828    8.7819   22.4541 N   0  0  0  0  0  0  0  0  0  0  0  0
  1  2  1  0  0  0  0
  1 21  1  0  0  0  0
  2  6  2  0  0  0  0
  3  7  1  1  0  0  0
  3  2  1  0  0  0  0
  4  5  1  0  0  0  0
  4  3  1  0  0  0  0
  5  1  1  0  0  0  0
  7  9  1  0  0  0  0
  7  8  1  0  0  0  0
  9 11  2  0  0  0  0
 10  9  2  0  0  0  0
 12 20  1  0  0  0  0
 13 12  1  0  0  0  0
 14 13  2  0  0  0  0
 15 16  2  0  0  0  0
 15 14  1  0  0  0  0
 16 17  1  0  0  0  0
 17 18  1  0  0  0  0
 17 12  2  0  0  0  0
 18 19  2  0  0  0  0
 19 20  1  0  0  0  0
 19  9  1  0  0  0  0
 21 29  1  0  0  0  0
 22 27  1  0  0  0  0
 23 24  2  0  0  0  0
 23 22  1  0  0  0  0
 24 25  1  0  0  0  0
 25 26  1  0  0  0  0
 27 26  2  0  0  0  0
 28 29  2  0  0  0  0
 28 23  1  0  0  0  0
 29 30  1  0  0  0  0
 30 22  2  0  0  0  0
M  END
>  <minimizedAffinity>
-8.82722

$$$$
