
 OpenBabel07192215303D

 30 34  0  0  0  0  0  0  0  0999 V2000
    5.7296    6.4960   22.2505 N   0  0  0  0  0  0  0  0  0  0  0  0
    5.1505    5.3156   22.5749 C   0  0  0  0  0  0  0  0  0  0  0  0
    5.5656    4.3176   21.5210 C   0  0  2  0  0  0  0  0  0  0  0  0
    6.1010    5.1678   20.3652 C   0  0  0  0  0  0  0  0  0  0  0  0
    6.5308    6.4511   21.0306 C   0  0  0  0  0  0  0  0  0  0  0  0
    4.4375    5.0918   23.5457 O   0  0  0  0  0  0  0  0  0  0  0  0
    4.4420    3.5292   21.0305 N   0  0  0  0  0  0  0  0  0  0  0  0
    3.6174    3.8303   21.5499 H   0  0  0  0  0  0  0  0  0  0  0  0
    4.5052    1.9003   21.1373 S   0  0  0  0  0  0  0  0  0  0  0  0
    3.1653    1.5929   20.7439 O   0  0  0  0  0  0  0  0  0  0  0  0
    4.9498    1.6347   22.4776 O   0  0  0  0  0  0  0  0  0  0  0  0
    6.9560    0.4346   18.1224 C   0  0  0  0  0  0  0  0  0  0  0  0
    7.5434   -0.1030   16.9449 C   0  0  0  0  0  0  0  0  0  0  0  0
    8.9597   -0.3297   16.9147 C   0  0  0  0  0  0  0  0  0  0  0  0
    9.7177   -0.0028   18.0857 C   0  0  0  0  0  0  0  0  0  0  0  0
    9.1251    0.5184   19.2111 N   0  0  0  0  0  0  0  0  0  0  0  0
    7.7455    0.7413   19.2342 C   0  0  0  0  0  0  0  0  0  0  0  0
    7.0694    1.2853   20.3664 C   0  0  0  0  0  0  0  0  0  0  0  0
    5.6927    1.3611   20.0157 C   0  0  0  0  0  0  0  0  0  0  0  0
    5.3468    0.7985   18.4371 S   0  0  0  0  0  0  0  0  0  0  0  0
    5.6311    7.7517   22.9970 C   0  0  0  0  0  0  0  0  0  0  0  0
    8.5072    7.6552   25.2435 C   0  0  0  0  0  0  0  0  0  0  0  0
    9.0351    8.5758   24.2474 C   0  0  0  0  0  0  0  0  0  0  0  0
   10.3487    9.1131   24.3877 C   0  0  0  0  0  0  0  0  0  0  0  0
   11.1037    8.7104   25.5298 C   0  0  0  0  0  0  0  0  0  0  0  0
   10.5656    7.8435   26.4442 N   0  0  0  0  0  0  0  0  0  0  0  0
    9.3236    7.3043   26.3589 C   0  0  0  0  0  0  0  0  0  0  0  0
    8.0403    8.7488   23.2718 C   0  0  0  0  0  0  0  0  0  0  0  0
    6.9620    7.9458   23.6949 C   0  0  0  0  0  0  0  0  0  0  0  0
    7.2334    7.3073   24.8482 N   0  0  0  0  0  0  0  0  0  0  0  0
  1  2  1  0  0  0  0
  1 21  1  0  0  0  0
  2  6  2  0  0  0  0
  3  7  1  6  0  0  0
  3  2  1  0  0  0  0
  4  5  1  0  0  0  0
  4  3  1  0  0  0  0
  5  1  1  0  0  0  0
  7  9  1  0  0  0  0
  7  8  1  0  0  0  0
  9 11  2  0  0  0  0
 10  9  2  0  0  0  0
 12 20  1  0  0  0  0
 13 12  1  0  0  0  0
 14 13  2  0  0  0  0
 15 16  2  0  0  0  0
 15 14  1  0  0  0  0
 16 17  1  0  0  0  0
 17 18  1  0  0  0  0
 17 12  2  0  0  0  0
 18 19  2  0  0  0  0
 19 20  1  0  0  0  0
 19  9  1  0  0  0  0
 21 29  1  0  0  0  0
 22 27  1  0  0  0  0
 23 24  2  0  0  0  0
 23 22  1  0  0  0  0
 24 25  1  0  0  0  0
 25 26  1  0  0  0  0
 27 26  2  0  0  0  0
 28 29  2  0  0  0  0
 28 23  1  0  0  0  0
 29 30  1  0  0  0  0
 30 22  2  0  0  0  0
M  END
>  <minimizedAffinity>
-9.95753

$$$$
