


 43 47  0  0  0  0  0  0  0  0999 V2000
    3.6222    5.1165   21.3416 C   0  0  0  0  0  0  0  0  0  0  0  0
    3.7246    4.0779   22.4883 C   0  0  0  0  0  0  0  0  0  0  0  0
    4.2064    4.5306   23.5254 O   0  0  0  0  0  0  0  0  0  0  0  0
    2.8733    2.9947   22.5444 N   0  0  0  0  0  0  0  0  0  0  0  0
    3.3726    1.6552   23.0341 C   0  0  0  0  0  0  0  0  0  0  0  0
    3.7786    0.7676   21.8456 C   0  0  0  0  0  0  0  0  0  0  0  0
    2.3598    0.5258   20.7455 S   0  0  0  0  0  0  0  0  0  0  0  0
    1.0978   -0.0959   21.4478 O   0  0  0  0  0  0  0  0  0  0  0  0
    2.7494   -0.3649   19.5024 O   0  0  0  0  0  0  0  0  0  0  0  0
    1.6648    2.9386   21.6515 C   0  0  0  0  0  0  0  0  0  0  0  0
    2.0125    2.2320   20.3281 C   0  0  0  0  0  0  0  0  0  0  0  0
    3.4097    6.5066   21.8586 N   0  0  0  0  0  0  0  0  0  0  0  0
    2.5181    6.8259   21.4797 H   0  0  0  0  0  0  0  0  0  0  0  0
    4.4051    7.5834   21.5745 C   0  0  0  0  0  0  0  0  0  0  0  0
    8.0191    8.0533   24.2822 N   0  0  0  0  0  0  0  0  0  0  0  0
    8.0991    8.3023   22.7933 C   0  0  0  0  0  0  0  0  0  0  0  0
    6.6226    7.8870   24.8286 C   0  0  0  0  0  0  0  0  0  0  0  0
    5.6672    7.5126   22.4663 C   0  0  0  0  0  0  0  0  0  0  0  0
    6.8206    8.3695   21.9249 C   0  0  0  0  0  0  0  0  0  0  0  0
    5.3876    7.9613   23.9014 C   0  0  0  0  0  0  0  0  0  0  0  0
   10.3863    7.1239   27.1207 C   0  0  0  0  0  0  0  0  0  0  0  0
    9.2235    7.9695   25.1600 C   0  0  0  0  0  0  0  0  0  0  0  0
    9.2301    7.1727   26.3275 C   0  0  0  0  0  0  0  0  0  0  0  0
   10.4116    8.6792   24.8601 C   0  0  0  0  0  0  0  0  0  0  0  0
   11.4711    7.8082   26.7969 N   0  0  0  0  0  0  0  0  0  0  0  0
   11.5157    8.5668   25.7147 C   0  0  0  0  0  0  0  0  0  0  0  0
    4.7573    5.0406   20.3175 C   0  0  0  0  0  0  0  0  0  0  0  0
    5.1309    3.6756   19.9988 N   0  0  0  0  0  0  0  0  0  0  0  0
    5.0244    3.5617   18.9908 H   0  0  0  0  0  0  0  0  0  0  0  0
    6.6934    3.1501   20.4002 S   0  0  0  0  0  0  0  0  0  0  0  0
    6.7601    2.6477   21.8962 O   0  0  0  0  0  0  0  0  0  0  0  0
    7.6636    4.3939   20.2288 O   0  0  0  0  0  0  0  0  0  0  0  0
    8.4245    1.4051   19.2388 C   0  0  0  0  0  0  0  0  0  0  0  0
    7.1103    1.8657   19.2739 C   0  0  0  0  0  0  0  0  0  0  0  0
    7.7654   -0.1764   17.4726 C   0  0  0  0  0  0  0  0  0  0  0  0
    6.4539    0.3033   17.5295 C   0  0  0  0  0  0  0  0  0  0  0  0
    6.1181    1.3258   18.4276 C   0  0  0  0  0  0  0  0  0  0  0  0
    8.7749    0.3920   18.3524 C   0  0  0  0  0  0  0  0  0  0  0  0
   10.0855   -0.0763   18.3043 C   0  0  0  0  0  0  0  0  0  0  0  0
    8.1308   -1.1856   16.5932 C   0  0  0  0  0  0  0  0  0  0  0  0
   10.4274   -1.0824   17.4166 C   0  0  0  0  0  0  0  0  0  0  0  0
    9.4622   -1.6300   16.5713 C   0  0  0  0  0  0  0  0  0  0  0  0
    9.9293   -2.8988   15.4694 Cl  0  0  0  0  0  0  0  0  0  0  0  0
 26 25  1  0  0  0
 26 24  2  0  0  0
 25 21  2  0  0  0
 24 22  1  0  0  0
 21 23  1  0  0  0
  8  7  2  0  0  0
 22 23  2  0  0  0
 22 15  1  0  0  0
 16 15  1  0  0  0
 16 19  1  0  0  0
  9  7  2  0  0  0
 15 17  1  0  0  0
  7 11  1  0  0  0
  7  6  1  0  0  0
 11 10  1  0  0  0
 10  4  1  0  0  0
 19 18  1  0  0  0
 17 20  1  0  0  0
  6  5  1  0  0  0
  4  5  1  0  0  0
  4  2  1  0  0  0
 20 18  1  0  0  0
 18 14  1  0  0  0
 12 14  1  0  0  0
 12  1  1  0  0  0
  2  1  1  0  0  0
  2  3  2  0  0  0
  1 27  1  0  0  0
 27 28  1  0  0  0
 28 30  1  0  0  0
 37 36  2  0  0  0
 37 34  1  0  0  0
 36 35  1  0  0  0
 30 34  1  0  0  0
 30 32  2  0  0  0
 30 31  2  0  0  0
 34 33  2  0  0  0
 35 40  2  0  0  0
 35 38  1  0  0  0
 40 42  1  0  0  0
 33 38  1  0  0  0
 38 39  2  0  0  0
 42 43  1  0  0  0
 42 41  2  0  0  0
 39 41  1  0  0  0
 28 29  1  0  0  0
 12 13  1  0  0  0
M  END
> <minimizedAffinity>
-11.34088

$$$$



 43 47  0  0  0  0  0  0  0  0999 V2000
    2.5147    5.0422   23.2906 C   0  0  0  0  0  0  0  0  0  0  0  0
    3.5636    6.0743   23.7795 C   0  0  0  0  0  0  0  0  0  0  0  0
    4.7197    5.6555   23.7548 O   0  0  0  0  0  0  0  0  0  0  0  0
    3.3238    7.4290   23.6884 N   0  0  0  0  0  0  0  0  0  0  0  0
    3.8088    8.3651   24.7710 C   0  0  0  0  0  0  0  0  0  0  0  0
    2.6853    8.6397   25.7848 C   0  0  0  0  0  0  0  0  0  0  0  0
    1.2590    9.3698   24.9397 S   0  0  0  0  0  0  0  0  0  0  0  0
    1.5825   10.6935   24.1551 O   0  0  0  0  0  0  0  0  0  0  0  0
    0.0787    9.6447   25.9504 O   0  0  0  0  0  0  0  0  0  0  0  0
    2.1637    7.9366   22.8774 C   0  0  0  0  0  0  0  0  0  0  0  0
    0.9106    8.0659   23.7631 C   0  0  0  0  0  0  0  0  0  0  0  0
    2.8806    4.4541   21.9621 N   0  0  0  0  0  0  0  0  0  0  0  0
    3.8417    4.7378   21.7721 H   0  0  0  0  0  0  0  0  0  0  0  0
    2.0876    4.7850   20.7403 C   0  0  0  0  0  0  0  0  0  0  0  0
    4.6057    3.8508   17.0797 N   0  0  0  0  0  0  0  0  0  0  0  0
    5.2254    4.3171   18.3774 C   0  0  0  0  0  0  0  0  0  0  0  0
    3.1449    3.4835   17.1644 C   0  0  0  0  0  0  0  0  0  0  0  0
    2.9008    4.6880   19.4279 C   0  0  0  0  0  0  0  0  0  0  0  0
    4.3891    4.4036   19.6761 C   0  0  0  0  0  0  0  0  0  0  0  0
    2.3677    3.5986   18.4961 C   0  0  0  0  0  0  0  0  0  0  0  0
    6.4066    2.4762   14.0151 C   0  0  0  0  0  0  0  0  0  0  0  0
    5.3678    3.7603   15.7995 C   0  0  0  0  0  0  0  0  0  0  0  0
    5.6900    2.5115   15.2208 C   0  0  0  0  0  0  0  0  0  0  0  0
    5.7965    4.9187   15.1070 C   0  0  0  0  0  0  0  0  0  0  0  0
    6.7857    3.5889   13.4083 N   0  0  0  0  0  0  0  0  0  0  0  0
    6.5078    4.7812   13.9081 C   0  0  0  0  0  0  0  0  0  0  0  0
    2.1519    3.9727   24.3238 C   0  0  0  0  0  0  0  0  0  0  0  0
    3.0117    2.8070   24.2456 N   0  0  0  0  0  0  0  0  0  0  0  0
    3.2799    2.5658   25.1997 H   0  0  0  0  0  0  0  0  0  0  0  0
    2.3999    1.3977   23.5257 S   0  0  0  0  0  0  0  0  0  0  0  0
    0.8532    1.5303   23.2347 O   0  0  0  0  0  0  0  0  0  0  0  0
    2.6330    0.2096   24.5513 O   0  0  0  0  0  0  0  0  0  0  0  0
    4.6790    1.3999   22.0437 C   0  0  0  0  0  0  0  0  0  0  0  0
    3.3107    1.1388   22.0439 C   0  0  0  0  0  0  0  0  0  0  0  0
    4.7513    0.7286   19.6774 C   0  0  0  0  0  0  0  0  0  0  0  0
    3.3775    0.4730   19.7058 C   0  0  0  0  0  0  0  0  0  0  0  0
    2.6492    0.6767   20.8859 C   0  0  0  0  0  0  0  0  0  0  0  0
    5.4164    1.2044   20.8805 C   0  0  0  0  0  0  0  0  0  0  0  0
    6.7845    1.4641   20.8648 C   0  0  0  0  0  0  0  0  0  0  0  0
    5.5004    0.5396   18.5248 C   0  0  0  0  0  0  0  0  0  0  0  0
    7.5110    1.2708   19.7020 C   0  0  0  0  0  0  0  0  0  0  0  0
    6.8768    0.8146   18.5463 C   0  0  0  0  0  0  0  0  0  0  0  0
    7.8255    0.5787   17.1018 Cl  0  0  0  0  0  0  0  0  0  0  0  0
 26 25  1  0  0  0
 26 24  2  0  0  0
 25 21  2  0  0  0
 24 22  1  0  0  0
 21 23  1  0  0  0
  8  7  2  0  0  0
 22 23  2  0  0  0
 22 15  1  0  0  0
 16 15  1  0  0  0
 16 19  1  0  0  0
  9  7  2  0  0  0
 15 17  1  0  0  0
  7 11  1  0  0  0
  7  6  1  0  0  0
 11 10  1  0  0  0
 10  4  1  0  0  0
 19 18  1  0  0  0
 17 20  1  0  0  0
  6  5  1  0  0  0
  4  5  1  0  0  0
  4  2  1  0  0  0
 20 18  1  0  0  0
 18 14  1  0  0  0
 12 14  1  0  0  0
 12  1  1  0  0  0
  2  1  1  0  0  0
  2  3  2  0  0  0
  1 27  1  0  0  0
 27 28  1  0  0  0
 28 30  1  0  0  0
 37 36  2  0  0  0
 37 34  1  0  0  0
 36 35  1  0  0  0
 30 34  1  0  0  0
 30 32  2  0  0  0
 30 31  2  0  0  0
 34 33  2  0  0  0
 35 40  2  0  0  0
 35 38  1  0  0  0
 40 42  1  0  0  0
 33 38  1  0  0  0
 38 39  2  0  0  0
 42 43  1  0  0  0
 42 41  2  0  0  0
 39 41  1  0  0  0
 28 29  1  0  0  0
 12 13  1  0  0  0
M  END
> <minimizedAffinity>
-10.98801

$$$$



 43 47  0  0  0  0  0  0  0  0999 V2000
    4.6837    5.3025   19.4676 C   0  0  0  0  0  0  0  0  0  0  0  0
    5.5729    4.3072   20.2571 C   0  0  0  0  0  0  0  0  0  0  0  0
    6.7443    4.2852   19.8831 O   0  0  0  0  0  0  0  0  0  0  0  0
    5.2598    3.9461   21.5504 N   0  0  0  0  0  0  0  0  0  0  0  0
    5.5077    2.5350   22.0307 C   0  0  0  0  0  0  0  0  0  0  0  0
    4.2252    1.6948   21.9103 C   0  0  0  0  0  0  0  0  0  0  0  0
    2.9011    2.4498   22.8892 S   0  0  0  0  0  0  0  0  0  0  0  0
    3.2526    2.6418   24.4098 O   0  0  0  0  0  0  0  0  0  0  0  0
    1.5629    1.6219   22.7698 O   0  0  0  0  0  0  0  0  0  0  0  0
    4.2078    4.7045   22.3113 C   0  0  0  0  0  0  0  0  0  0  0  0
    2.8269    4.0559   22.1014 C   0  0  0  0  0  0  0  0  0  0  0  0
    5.4037    6.5804   19.1623 N   0  0  0  0  0  0  0  0  0  0  0  0
    6.3914    6.3437   19.0684 H   0  0  0  0  0  0  0  0  0  0  0  0
    5.3291    7.7380   20.1034 C   0  0  0  0  0  0  0  0  0  0  0  0
    8.2078    8.1738   23.5872 N   0  0  0  0  0  0  0  0  0  0  0  0
    8.6469    8.3892   22.1567 C   0  0  0  0  0  0  0  0  0  0  0  0
    6.7173    8.0543   23.7874 C   0  0  0  0  0  0  0  0  0  0  0  0
    6.3403    7.6543   21.2712 C   0  0  0  0  0  0  0  0  0  0  0  0
    7.6141    8.4703   21.0078 C   0  0  0  0  0  0  0  0  0  0  0  0
    5.7408    8.1400   22.5917 C   0  0  0  0  0  0  0  0  0  0  0  0
   11.2754    8.6349   25.8011 C   0  0  0  0  0  0  0  0  0  0  0  0
    9.1660    8.0783   24.7277 C   0  0  0  0  0  0  0  0  0  0  0  0
   10.4079    8.7530   24.7048 C   0  0  0  0  0  0  0  0  0  0  0  0
    8.8719    7.3133   25.8825 C   0  0  0  0  0  0  0  0  0  0  0  0
   10.9535    7.9053   26.8566 N   0  0  0  0  0  0  0  0  0  0  0  0
    9.8036    7.2562   26.9269 C   0  0  0  0  0  0  0  0  0  0  0  0
    4.0078    4.7025   18.2321 C   0  0  0  0  0  0  0  0  0  0  0  0
    4.8403    3.7219   17.5616 N   0  0  0  0  0  0  0  0  0  0  0  0
    5.7186    3.6692   18.0775 H   0  0  0  0  0  0  0  0  0  0  0  0
    4.2557    2.1369   17.4043 S   0  0  0  0  0  0  0  0  0  0  0  0
    3.2460    2.0180   16.1956 O   0  0  0  0  0  0  0  0  0  0  0  0
    3.4942    1.7835   18.7507 O   0  0  0  0  0  0  0  0  0  0  0  0
    6.7849    1.3087   17.9591 C   0  0  0  0  0  0  0  0  0  0  0  0
    5.6523    1.0928   17.1774 C   0  0  0  0  0  0  0  0  0  0  0  0
    7.8733   -0.5722   16.8048 C   0  0  0  0  0  0  0  0  0  0  0  0
    6.7235   -0.7678   16.0348 C   0  0  0  0  0  0  0  0  0  0  0  0
    5.6079    0.0617   16.2146 C   0  0  0  0  0  0  0  0  0  0  0  0
    7.9011    0.4954   17.7925 C   0  0  0  0  0  0  0  0  0  0  0  0
    9.0413    0.7015   18.5649 C   0  0  0  0  0  0  0  0  0  0  0  0
    8.9950   -1.3742   16.6496 C   0  0  0  0  0  0  0  0  0  0  0  0
   10.1498   -0.1097   18.3905 C   0  0  0  0  0  0  0  0  0  0  0  0
   10.1270   -1.1345   17.4444 C   0  0  0  0  0  0  0  0  0  0  0  0
   11.5407   -2.1387   17.2559 Cl  0  0  0  0  0  0  0  0  0  0  0  0
 26 25  1  0  0  0
 26 24  2  0  0  0
 25 21  2  0  0  0
 24 22  1  0  0  0
 21 23  1  0  0  0
  8  7  2  0  0  0
 22 23  2  0  0  0
 22 15  1  0  0  0
 16 15  1  0  0  0
 16 19  1  0  0  0
  9  7  2  0  0  0
 15 17  1  0  0  0
  7 11  1  0  0  0
  7  6  1  0  0  0
 11 10  1  0  0  0
 10  4  1  0  0  0
 19 18  1  0  0  0
 17 20  1  0  0  0
  6  5  1  0  0  0
  4  5  1  0  0  0
  4  2  1  0  0  0
 20 18  1  0  0  0
 18 14  1  0  0  0
 12 14  1  0  0  0
 12  1  1  0  0  0
  2  1  1  0  0  0
  2  3  2  0  0  0
  1 27  1  0  0  0
 27 28  1  0  0  0
 28 30  1  0  0  0
 37 36  2  0  0  0
 37 34  1  0  0  0
 36 35  1  0  0  0
 30 34  1  0  0  0
 30 32  2  0  0  0
 30 31  2  0  0  0
 34 33  2  0  0  0
 35 40  2  0  0  0
 35 38  1  0  0  0
 40 42  1  0  0  0
 33 38  1  0  0  0
 38 39  2  0  0  0
 42 43  1  0  0  0
 42 41  2  0  0  0
 39 41  1  0  0  0
 28 29  1  0  0  0
 12 13  1  0  0  0
M  END
> <minimizedAffinity>
-10.97302

$$$$
