
 OpenBabel07192215303D

 40 42  0  0  0  0  0  0  0  0999 V2000
    5.4949    4.2912   22.3809 C   0  0  0  0  0  0  0  0  0  0  0  0
    5.8501    5.6138   22.2432 N   0  0  0  0  0  0  0  0  0  0  0  0
    4.6915    3.9225   23.2450 O   0  0  0  0  0  0  0  0  0  0  0  0
    6.4950    5.8538   21.5391 H   0  0  0  0  0  0  0  0  0  0  0  0
    7.2818    3.7414   20.6655 C   0  0  0  0  0  0  0  0  0  0  0  0
    6.1472    3.3459   21.4325 C   0  0  0  0  0  0  0  0  0  0  0  0
    5.6603    2.0124   21.2611 C   0  0  0  0  0  0  0  0  0  0  0  0
    6.2940    1.1189   20.3549 C   0  0  0  0  0  0  0  0  0  0  0  0
    7.4219    1.5163   19.5942 C   0  0  0  0  0  0  0  0  0  0  0  0
    7.9003    2.8416   19.7684 C   0  0  0  0  0  0  0  0  0  0  0  0
    9.4585    0.1998   18.7855 C   0  0  0  0  0  0  0  0  0  0  0  0
    8.0984    0.5654   18.6265 C   0  0  0  0  0  0  0  0  0  0  0  0
    7.3923    0.0091   17.5308 C   0  0  0  0  0  0  0  0  0  0  0  0
    8.0079   -0.8845   16.6182 C   0  0  0  0  0  0  0  0  0  0  0  0
    9.3664   -1.2435   16.7845 C   0  0  0  0  0  0  0  0  0  0  0  0
   10.0974   -0.6994   17.8748 C   0  0  0  0  0  0  0  0  0  0  0  0
   11.5416   -1.0663   18.0704 C   0  0  0  0  0  0  0  0  0  0  0  0
   11.9284   -2.1886   17.2081 N   0  0  0  0  0  0  0  0  0  0  0  0
   11.8026   -1.9254   16.2307 H   0  0  0  0  0  0  0  0  0  0  0  0
   11.3443   -2.9974   17.4202 H   0  0  0  0  0  0  0  0  0  0  0  0
    5.3154    6.6849   23.0935 C   0  0  2  0  0  0  0  0  0  0  0  0
    3.8429    6.9111   22.7138 C   0  0  0  0  0  0  0  0  0  0  0  0
    6.2012    7.9754   22.9134 C   0  0  2  0  0  0  0  0  0  0  0  0
    7.4789    7.5918   22.1175 C   0  0  0  0  0  0  0  0  0  0  0  0
    8.2496    6.7280   22.4312 O   0  0  0  0  0  0  0  0  0  0  0  0
    7.5800    8.3045   20.8850 O   0  0  0  0  0  0  0  0  0  0  0  0
    8.8733    8.6459   20.3638 C   0  0  0  0  0  0  0  0  0  0  0  0
    6.5786    8.6000   24.3069 C   0  0  0  0  0  0  0  0  0  0  0  0
    8.4882    7.7053   25.8064 C   0  0  0  0  0  0  0  0  0  0  0  0
    9.8567    7.6774   26.1735 C   0  0  0  0  0  0  0  0  0  0  0  0
   10.7843    8.4906   25.4682 C   0  0  0  0  0  0  0  0  0  0  0  0
   10.3451    9.3138   24.4138 C   0  0  0  0  0  0  0  0  0  0  0  0
    8.9831    9.3346   24.0551 C   0  0  0  0  0  0  0  0  0  0  0  0
    8.0353    8.5330   24.7428 C   0  0  0  0  0  0  0  0  0  0  0  0
   10.3195    6.8235   27.2731 C   0  0  0  0  0  0  0  0  0  0  0  0
   11.6149    6.8302   27.6458 N   0  0  0  0  0  0  0  0  0  0  0  0
    9.4540    6.0301   27.9206 N   0  0  0  0  0  0  0  0  0  0  0  0
   12.2589    7.4090   27.1772 H   0  0  0  0  0  0  0  0  0  0  0  0
    8.5056    6.0175   27.6566 H   0  0  0  0  0  0  0  0  0  0  0  0
    9.7668    5.4603   28.6599 H   0  0  0  0  0  0  0  0  0  0  0  0
  1  3  2  0  0  0  0
  2  1  1  0  0  0  0
  2 21  1  0  0  0  0
  2  4  1  0  0  0  0
  5  6  1  0  0  0  0
  6  1  1  0  0  0  0
  7  6  2  0  0  0  0
  8  7  1  0  0  0  0
  9 10  1  0  0  0  0
  9  8  2  0  0  0  0
 10  5  2  0  0  0  0
 11 12  1  0  0  0  0
 12 13  2  0  0  0  0
 12  9  1  0  0  0  0
 14 13  1  0  0  0  0
 15 14  2  0  0  0  0
 16 15  1  0  0  0  0
 16 11  2  0  0  0  0
 17 16  1  0  0  0  0
 18 17  1  0  0  0  0
 18 19  1  0  0  0  0
 18 20  1  0  0  0  0
 21 22  1  6  0  0  0
 21 23  1  0  0  0  0
 23 28  1  1  0  0  0
 23 24  1  0  0  0  0
 24 25  2  0  0  0  0
 24 26  1  0  0  0  0
 26 27  1  0  0  0  0
 28 34  1  0  0  0  0
 29 30  1  0  0  0  0
 30 35  1  0  0  0  0
 31 30  2  0  0  0  0
 32 31  1  0  0  0  0
 33 34  1  0  0  0  0
 33 32  2  0  0  0  0
 34 29  2  0  0  0  0
 35 36  2  0  0  0  0
 35 37  1  0  0  0  0
 36 38  1  0  0  0  0
 37 39  1  0  0  0  0
 37 40  1  0  0  0  0
M  END
>  <minimizedAffinity>
-12.85327

$$$$
