
 OpenBabel07192215303D

 43 47  0  0  0  0  0  0  0  0999 V2000
    4.6837    5.3025   19.4676 C   0  0  1  0  0  0  0  0  0  0  0  0
    5.5729    4.3072   20.2571 C   0  0  0  0  0  0  0  0  0  0  0  0
    6.7443    4.2852   19.8831 O   0  0  0  0  0  0  0  0  0  0  0  0
    5.2598    3.9461   21.5504 N   0  0  0  0  0  0  0  0  0  0  0  0
    5.5077    2.5350   22.0307 C   0  0  0  0  0  0  0  0  0  0  0  0
    4.2252    1.6948   21.9103 C   0  0  0  0  0  0  0  0  0  0  0  0
    2.9011    2.4498   22.8892 S   0  0  0  0  0  0  0  0  0  0  0  0
    3.2526    2.6418   24.4098 O   0  0  0  0  0  0  0  0  0  0  0  0
    1.5629    1.6219   22.7698 O   0  0  0  0  0  0  0  0  0  0  0  0
    4.2078    4.7045   22.3113 C   0  0  0  0  0  0  0  0  0  0  0  0
    2.8269    4.0559   22.1014 C   0  0  0  0  0  0  0  0  0  0  0  0
    5.4037    6.5804   19.1623 N   0  0  0  0  0  0  0  0  0  0  0  0
    6.3914    6.3437   19.0684 H   0  0  0  0  0  0  0  0  0  0  0  0
    5.3291    7.7380   20.1034 C   0  0  0  0  0  0  0  0  0  0  0  0
    8.2078    8.1738   23.5872 N   0  0  0  0  0  0  0  0  0  0  0  0
    8.6469    8.3892   22.1567 C   0  0  0  0  0  0  0  0  0  0  0  0
    6.7173    8.0543   23.7874 C   0  0  0  0  0  0  0  0  0  0  0  0
    6.3403    7.6543   21.2712 C   0  0  0  0  0  0  0  0  0  0  0  0
    7.6141    8.4703   21.0078 C   0  0  0  0  0  0  0  0  0  0  0  0
    5.7408    8.1400   22.5917 C   0  0  0  0  0  0  0  0  0  0  0  0
   11.2754    8.6349   25.8011 C   0  0  0  0  0  0  0  0  0  0  0  0
    9.1660    8.0783   24.7277 C   0  0  0  0  0  0  0  0  0  0  0  0
   10.4079    8.7530   24.7048 C   0  0  0  0  0  0  0  0  0  0  0  0
    8.8719    7.3133   25.8825 C   0  0  0  0  0  0  0  0  0  0  0  0
   10.9535    7.9053   26.8566 N   0  0  0  0  0  0  0  0  0  0  0  0
    9.8036    7.2562   26.9269 C   0  0  0  0  0  0  0  0  0  0  0  0
    4.0078    4.7025   18.2321 C   0  0  0  0  0  0  0  0  0  0  0  0
    4.8403    3.7219   17.5616 N   0  0  0  0  0  0  0  0  0  0  0  0
    5.7186    3.6692   18.0775 H   0  0  0  0  0  0  0  0  0  0  0  0
    4.2557    2.1369   17.4043 S   0  0  0  0  0  0  0  0  0  0  0  0
    3.2460    2.0180   16.1956 O   0  0  0  0  0  0  0  0  0  0  0  0
    3.4942    1.7835   18.7507 O   0  0  0  0  0  0  0  0  0  0  0  0
    6.7849    1.3087   17.9591 C   0  0  0  0  0  0  0  0  0  0  0  0
    5.6523    1.0928   17.1774 C   0  0  0  0  0  0  0  0  0  0  0  0
    7.8733   -0.5722   16.8048 C   0  0  0  0  0  0  0  0  0  0  0  0
    6.7235   -0.7678   16.0348 C   0  0  0  0  0  0  0  0  0  0  0  0
    5.6079    0.0617   16.2146 C   0  0  0  0  0  0  0  0  0  0  0  0
    7.9011    0.4954   17.7925 C   0  0  0  0  0  0  0  0  0  0  0  0
    9.0413    0.7015   18.5649 C   0  0  0  0  0  0  0  0  0  0  0  0
    8.9950   -1.3742   16.6496 C   0  0  0  0  0  0  0  0  0  0  0  0
   10.1498   -0.1097   18.3905 C   0  0  0  0  0  0  0  0  0  0  0  0
   10.1270   -1.1345   17.4444 C   0  0  0  0  0  0  0  0  0  0  0  0
   11.5407   -2.1387   17.2559 Cl  0  0  0  0  0  0  0  0  0  0  0  0
  1 27  1  6  0  0  0
  2  1  1  0  0  0  0
  2  3  2  0  0  0  0
  4  5  1  0  0  0  0
  4  2  1  0  0  0  0
  6  5  1  0  0  0  0
  7 11  1  0  0  0  0
  7  6  1  0  0  0  0
  8  7  2  0  0  0  0
  9  7  2  0  0  0  0
 10  4  1  0  0  0  0
 11 10  1  0  0  0  0
 12 14  1  0  0  0  0
 12  1  1  0  0  0  0
 12 13  1  0  0  0  0
 15 17  1  0  0  0  0
 16 15  1  0  0  0  0
 16 19  1  0  0  0  0
 17 20  1  0  0  0  0
 18 14  1  0  0  0  0
 19 18  1  0  0  0  0
 20 18  1  0  0  0  0
 21 23  1  0  0  0  0
 22 23  2  0  0  0  0
 22 15  1  0  0  0  0
 24 22  1  0  0  0  0
 25 21  2  0  0  0  0
 26 25  1  0  0  0  0
 26 24  2  0  0  0  0
 27 28  1  0  0  0  0
 28 30  1  0  0  0  0
 28 29  1  0  0  0  0
 30 34  1  0  0  0  0
 30 32  2  0  0  0  0
 30 31  2  0  0  0  0
 33 38  1  0  0  0  0
 34 33  2  0  0  0  0
 35 40  2  0  0  0  0
 35 38  1  0  0  0  0
 36 35  1  0  0  0  0
 37 36  2  0  0  0  0
 37 34  1  0  0  0  0
 38 39  2  0  0  0  0
 39 41  1  0  0  0  0
 40 42  1  0  0  0  0
 42 43  1  0  0  0  0
 42 41  2  0  0  0  0
M  END
>  <minimizedAffinity>
-10.97302

$$$$
