
 OpenBabel07192215303D

 43 47  0  0  0  0  0  0  0  0999 V2000
    3.6222    5.1165   21.3416 C   0  0  1  0  0  0  0  0  0  0  0  0
    3.7246    4.0779   22.4883 C   0  0  0  0  0  0  0  0  0  0  0  0
    4.2064    4.5306   23.5254 O   0  0  0  0  0  0  0  0  0  0  0  0
    2.8733    2.9947   22.5444 N   0  0  0  0  0  0  0  0  0  0  0  0
    3.3726    1.6552   23.0341 C   0  0  0  0  0  0  0  0  0  0  0  0
    3.7786    0.7676   21.8456 C   0  0  0  0  0  0  0  0  0  0  0  0
    2.3598    0.5258   20.7455 S   0  0  0  0  0  0  0  0  0  0  0  0
    1.0978   -0.0959   21.4478 O   0  0  0  0  0  0  0  0  0  0  0  0
    2.7494   -0.3649   19.5024 O   0  0  0  0  0  0  0  0  0  0  0  0
    1.6648    2.9386   21.6515 C   0  0  0  0  0  0  0  0  0  0  0  0
    2.0125    2.2320   20.3281 C   0  0  0  0  0  0  0  0  0  0  0  0
    3.4097    6.5066   21.8586 N   0  0  0  0  0  0  0  0  0  0  0  0
    2.5181    6.8259   21.4797 H   0  0  0  0  0  0  0  0  0  0  0  0
    4.4051    7.5834   21.5745 C   0  0  0  0  0  0  0  0  0  0  0  0
    8.0191    8.0533   24.2822 N   0  0  0  0  0  0  0  0  0  0  0  0
    8.0991    8.3023   22.7933 C   0  0  0  0  0  0  0  0  0  0  0  0
    6.6226    7.8870   24.8286 C   0  0  0  0  0  0  0  0  0  0  0  0
    5.6672    7.5126   22.4663 C   0  0  0  0  0  0  0  0  0  0  0  0
    6.8206    8.3695   21.9249 C   0  0  0  0  0  0  0  0  0  0  0  0
    5.3876    7.9613   23.9014 C   0  0  0  0  0  0  0  0  0  0  0  0
   10.3863    7.1239   27.1207 C   0  0  0  0  0  0  0  0  0  0  0  0
    9.2235    7.9695   25.1600 C   0  0  0  0  0  0  0  0  0  0  0  0
    9.2301    7.1727   26.3275 C   0  0  0  0  0  0  0  0  0  0  0  0
   10.4116    8.6792   24.8601 C   0  0  0  0  0  0  0  0  0  0  0  0
   11.4711    7.8082   26.7969 N   0  0  0  0  0  0  0  0  0  0  0  0
   11.5157    8.5668   25.7147 C   0  0  0  0  0  0  0  0  0  0  0  0
    4.7573    5.0406   20.3175 C   0  0  0  0  0  0  0  0  0  0  0  0
    5.1309    3.6756   19.9988 N   0  0  0  0  0  0  0  0  0  0  0  0
    5.0244    3.5617   18.9908 H   0  0  0  0  0  0  0  0  0  0  0  0
    6.6934    3.1501   20.4002 S   0  0  0  0  0  0  0  0  0  0  0  0
    6.7601    2.6477   21.8962 O   0  0  0  0  0  0  0  0  0  0  0  0
    7.6636    4.3939   20.2288 O   0  0  0  0  0  0  0  0  0  0  0  0
    8.4245    1.4051   19.2388 C   0  0  0  0  0  0  0  0  0  0  0  0
    7.1103    1.8657   19.2739 C   0  0  0  0  0  0  0  0  0  0  0  0
    7.7654   -0.1764   17.4726 C   0  0  0  0  0  0  0  0  0  0  0  0
    6.4539    0.3033   17.5295 C   0  0  0  0  0  0  0  0  0  0  0  0
    6.1181    1.3258   18.4276 C   0  0  0  0  0  0  0  0  0  0  0  0
    8.7749    0.3920   18.3524 C   0  0  0  0  0  0  0  0  0  0  0  0
   10.0855   -0.0763   18.3043 C   0  0  0  0  0  0  0  0  0  0  0  0
    8.1308   -1.1856   16.5932 C   0  0  0  0  0  0  0  0  0  0  0  0
   10.4274   -1.0824   17.4166 C   0  0  0  0  0  0  0  0  0  0  0  0
    9.4622   -1.6300   16.5713 C   0  0  0  0  0  0  0  0  0  0  0  0
    9.9293   -2.8988   15.4694 Cl  0  0  0  0  0  0  0  0  0  0  0  0
  1 27  1  1  0  0  0
  2  1  1  0  0  0  0
  2  3  2  0  0  0  0
  4  5  1  0  0  0  0
  4  2  1  0  0  0  0
  6  5  1  0  0  0  0
  7 11  1  0  0  0  0
  7  6  1  0  0  0  0
  8  7  2  0  0  0  0
  9  7  2  0  0  0  0
 10  4  1  0  0  0  0
 11 10  1  0  0  0  0
 12 14  1  0  0  0  0
 12  1  1  0  0  0  0
 12 13  1  0  0  0  0
 15 17  1  0  0  0  0
 16 15  1  0  0  0  0
 16 19  1  0  0  0  0
 17 20  1  0  0  0  0
 18 14  1  0  0  0  0
 19 18  1  0  0  0  0
 20 18  1  0  0  0  0
 21 23  1  0  0  0  0
 22 23  2  0  0  0  0
 22 15  1  0  0  0  0
 24 22  1  0  0  0  0
 25 21  2  0  0  0  0
 26 25  1  0  0  0  0
 26 24  2  0  0  0  0
 27 28  1  0  0  0  0
 28 30  1  0  0  0  0
 28 29  1  0  0  0  0
 30 34  1  0  0  0  0
 30 32  2  0  0  0  0
 30 31  2  0  0  0  0
 33 38  1  0  0  0  0
 34 33  2  0  0  0  0
 35 40  2  0  0  0  0
 35 38  1  0  0  0  0
 36 35  1  0  0  0  0
 37 36  2  0  0  0  0
 37 34  1  0  0  0  0
 38 39  2  0  0  0  0
 39 41  1  0  0  0  0
 40 42  1  0  0  0  0
 42 43  1  0  0  0  0
 42 41  2  0  0  0  0
M  END
>  <minimizedAffinity>
-11.34088

$$$$
