


 40 43  0  0  0  0  0  0  0  0999 V2000
    6.2787    2.1396   20.6201 C   0  0  0  0  0  0  0  0  0  0  0  0
    5.3751    4.2712   21.6840 C   0  0  0  0  0  0  0  0  0  0  0  0
    5.5065    5.6213   21.9808 C   0  0  0  0  0  0  0  0  0  0  0  0
    7.6181    4.2469   20.7580 C   0  0  0  0  0  0  0  0  0  0  0  0
    7.7501    5.5961   21.0587 C   0  0  0  0  0  0  0  0  0  0  0  0
    6.6918    6.2772   21.6666 C   0  0  0  0  0  0  0  0  0  0  0  0
    6.4290    3.5928   21.0619 C   0  0  0  0  0  0  0  0  0  0  0  0
    6.8020    7.6853   21.9687 O   0  0  0  0  0  0  0  0  0  0  0  0
    9.2131    8.4387   24.4588 N   0  0  0  0  0  0  0  0  0  0  0  0
    8.7470    8.5720   23.0842 C   0  0  0  0  0  0  0  0  0  0  0  0
    7.2800    8.2221   23.1562 C   0  0  0  0  0  0  0  0  0  0  0  0
    7.2638    7.3273   24.3359 C   0  0  0  0  0  0  0  0  0  0  0  0
    8.3081    7.7086   25.3548 C   0  0  0  0  0  0  0  0  0  0  0  0
   10.3750    8.9593   24.8405 C   0  0  0  0  0  0  0  0  0  0  0  0
   10.7443   10.1384   24.3727 N   0  0  0  0  0  0  0  0  0  0  0  0
   11.3079    8.3100   25.8638 C   0  0  0  0  0  0  0  0  0  0  0  0
   10.4434   10.4394   23.4937 H   0  0  0  0  0  0  0  0  0  0  0  0
   11.3387   10.6685   24.9433 H   0  0  0  0  0  0  0  0  0  0  0  0
    5.0236    1.3496   20.9935 C   0  0  0  0  0  0  0  0  0  0  0  0
    4.7297    1.1805   22.1803 O   0  0  0  0  0  0  0  0  0  0  0  0
    4.3211    0.9464   20.0634 O   0  0  0  0  0  0  0  0  0  0  0  0
    5.2947    1.5048   22.8538 H   0  0  0  0  0  0  0  0  0  0  0  0
    6.4133    2.0689   19.1040 C   0  0  0  0  0  0  0  0  0  0  0  0
    7.1643    0.3058   17.5333 C   0  0  0  0  0  0  0  0  0  0  0  0
    7.5121    1.1821   18.5426 C   0  0  0  0  0  0  0  0  0  0  0  0
    8.8428    1.1934   19.0051 C   0  0  0  0  0  0  0  0  0  0  0  0
    9.7629    0.2535   18.5265 C   0  0  0  0  0  0  0  0  0  0  0  0
    9.3636   -0.6623   17.5477 C   0  0  0  0  0  0  0  0  0  0  0  0
   10.2604   -1.6024   17.0391 C   0  0  0  0  0  0  0  0  0  0  0  0
    9.8415   -2.4885   16.0424 C   0  0  0  0  0  0  0  0  0  0  0  0
    8.5465   -2.4137   15.5009 C   0  0  0  0  0  0  0  0  0  0  0  0
    7.6714   -1.5153   16.0866 C   0  0  0  0  0  0  0  0  0  0  0  0
    8.0576   -0.6159   17.0440 C   0  0  0  0  0  0  0  0  0  0  0  0
    8.1340   -3.1690   14.4124 C   0  0  0  0  0  0  0  0  0  0  0  0
    7.5906   -4.3699   14.6229 N   0  0  0  0  0  0  0  0  0  0  0  0
    8.2748   -2.6830   13.1718 N   0  0  0  0  0  0  0  0  0  0  0  0
    7.2629   -4.9813   13.9160 H   0  0  0  0  0  0  0  0  0  0  0  0
    8.6743   -1.7712   13.0669 H   0  0  0  0  0  0  0  0  0  0  0  0
    7.9996   -3.1775   12.3512 H   0  0  0  0  0  0  0  0  0  0  0  0
    7.5729   -4.7166   15.5730 H   0  0  0  0  0  0  0  0  0  0  0  0
 18 15  1  0  0  0
 17 15  1  0  0  0
 15 14  1  0  0  0
 16 14  1  0  0  0
 14  9  1  0  0  0
  9 13  1  0  0  0
  9 10  1  0  0  0
 13 12  1  0  0  0
 10 11  1  0  0  0
 12 11  1  0  0  0
 11  8  1  0  0  0
  5  4  2  0  0  0
  5  6  1  0  0  0
  4  7  1  0  0  0
  8  6  1  0  0  0
  6  3  2  0  0  0
 21 19  2  0  0  0
  7  1  1  0  0  0
  7  2  2  0  0  0
 19  1  1  0  0  0
 19 20  1  0  0  0
  1 23  1  0  0  0
  3  2  1  0  0  0
 26 27  2  0  0  0
 26 25  1  0  0  0
 23 25  1  0  0  0
 27 28  1  0  0  0
 25 24  2  0  0  0
 28 29  2  0  0  0
 28 33  1  0  0  0
 24 33  1  0  0  0
 29 30  1  0  0  0
 33 32  2  0  0  0
 30 31  2  0  0  0
 32 31  1  0  0  0
 31 34  1  0  0  0
 38 36  1  0  0  0
 34 36  2  0  0  0
 34 35  1  0  0  0
 40 35  1  0  0  0
 36 39  1  0  0  0
 35 37  1  0  0  0
 20 22  1  0  0  0
M  END
> <minimizedAffinity>
-11.84343

$$$$



 40 43  0  0  0  0  0  0  0  0999 V2000
    5.8656    1.1156   18.8900 C   0  0  0  0  0  0  0  0  0  0  0  0
    5.1491    3.5492   19.1286 C   0  0  0  0  0  0  0  0  0  0  0  0
    5.3566    4.8238   19.6389 C   0  0  0  0  0  0  0  0  0  0  0  0
    7.0245    2.7153   20.4235 C   0  0  0  0  0  0  0  0  0  0  0  0
    7.2288    3.9894   20.9364 C   0  0  0  0  0  0  0  0  0  0  0  0
    6.3948    5.0382   20.5390 C   0  0  0  0  0  0  0  0  0  0  0  0
    5.9934    2.5023   19.5149 C   0  0  0  0  0  0  0  0  0  0  0  0
    6.6038    6.3747   21.0453 O   0  0  0  0  0  0  0  0  0  0  0  0
    8.8449    8.4135   22.8899 N   0  0  0  0  0  0  0  0  0  0  0  0
    7.8935    7.3098   22.8554 C   0  0  0  0  0  0  0  0  0  0  0  0
    7.8295    6.9231   21.3972 C   0  0  0  0  0  0  0  0  0  0  0  0
    8.1849    8.2075   20.7517 C   0  0  0  0  0  0  0  0  0  0  0  0
    9.1438    9.0187   21.5864 C   0  0  0  0  0  0  0  0  0  0  0  0
    9.3887    8.8118   24.0355 C   0  0  0  0  0  0  0  0  0  0  0  0
   10.0455    9.9573   24.0800 N   0  0  0  0  0  0  0  0  0  0  0  0
    9.2455    8.0571   25.3580 C   0  0  0  0  0  0  0  0  0  0  0  0
   10.4964   10.3014   23.2849 H   0  0  0  0  0  0  0  0  0  0  0  0
   10.0646   10.4170   24.9449 H   0  0  0  0  0  0  0  0  0  0  0  0
    4.4833    0.5171   18.6259 C   0  0  0  0  0  0  0  0  0  0  0  0
    4.2370   -0.0150   17.5397 O   0  0  0  0  0  0  0  0  0  0  0  0
    3.6721    0.5560   19.5541 O   0  0  0  0  0  0  0  0  0  0  0  0
    4.8851   -0.0203   16.8630 H   0  0  0  0  0  0  0  0  0  0  0  0
    6.6164    1.1014   17.5642 C   0  0  0  0  0  0  0  0  0  0  0  0
    8.0634   -0.7005   16.6706 C   0  0  0  0  0  0  0  0  0  0  0  0
    7.9515    0.3770   17.5273 C   0  0  0  0  0  0  0  0  0  0  0  0
    9.0582    0.7302   18.3244 C   0  0  0  0  0  0  0  0  0  0  0  0
   10.2078   -0.0685   18.3272 C   0  0  0  0  0  0  0  0  0  0  0  0
   10.2675   -1.1898   17.4933 C   0  0  0  0  0  0  0  0  0  0  0  0
   11.4044   -1.9981   17.4618 C   0  0  0  0  0  0  0  0  0  0  0  0
   11.4470   -3.0974   16.5995 C   0  0  0  0  0  0  0  0  0  0  0  0
   10.3856   -3.3727   15.7198 C   0  0  0  0  0  0  0  0  0  0  0  0
    9.2515   -2.5881   15.8385 C   0  0  0  0  0  0  0  0  0  0  0  0
    9.1884   -1.4887   16.6523 C   0  0  0  0  0  0  0  0  0  0  0  0
   10.4435   -4.3589   14.7455 C   0  0  0  0  0  0  0  0  0  0  0  0
   11.5768   -5.0447   14.5812 N   0  0  0  0  0  0  0  0  0  0  0  0
    9.3652   -4.6174   13.9935 N   0  0  0  0  0  0  0  0  0  0  0  0
   11.7172   -5.7673   13.9186 H   0  0  0  0  0  0  0  0  0  0  0  0
    8.5343   -4.0861   14.1651 H   0  0  0  0  0  0  0  0  0  0  0  0
    9.3452   -5.3112   13.2781 H   0  0  0  0  0  0  0  0  0  0  0  0
   12.3800   -4.7611   15.1269 H   0  0  0  0  0  0  0  0  0  0  0  0
 18 15  1  0  0  0
 17 15  1  0  0  0
 15 14  1  0  0  0
 16 14  1  0  0  0
 14  9  1  0  0  0
  9 13  1  0  0  0
  9 10  1  0  0  0
 13 12  1  0  0  0
 10 11  1  0  0  0
 12 11  1  0  0  0
 11  8  1  0  0  0
  5  4  2  0  0  0
  5  6  1  0  0  0
  4  7  1  0  0  0
  8  6  1  0  0  0
  6  3  2  0  0  0
 21 19  2  0  0  0
  7  1  1  0  0  0
  7  2  2  0  0  0
 19  1  1  0  0  0
 19 20  1  0  0  0
  1 23  1  0  0  0
  3  2  1  0  0  0
 26 27  2  0  0  0
 26 25  1  0  0  0
 23 25  1  0  0  0
 27 28  1  0  0  0
 25 24  2  0  0  0
 28 29  2  0  0  0
 28 33  1  0  0  0
 24 33  1  0  0  0
 29 30  1  0  0  0
 33 32  2  0  0  0
 30 31  2  0  0  0
 32 31  1  0  0  0
 31 34  1  0  0  0
 38 36  1  0  0  0
 34 36  2  0  0  0
 34 35  1  0  0  0
 40 35  1  0  0  0
 36 39  1  0  0  0
 35 37  1  0  0  0
 20 22  1  0  0  0
M  END
> <minimizedAffinity>
-11.50304

$$$$



 40 43  0  0  0  0  0  0  0  0999 V2000
    6.1778    2.4625   20.2710 C   0  0  0  0  0  0  0  0  0  0  0  0
    5.2501    4.7050   21.0473 C   0  0  0  0  0  0  0  0  0  0  0  0
    5.4405    6.0390   21.3823 C   0  0  0  0  0  0  0  0  0  0  0  0
    7.6475    4.4123   20.8117 C   0  0  0  0  0  0  0  0  0  0  0  0
    7.8373    5.7454   21.1507 C   0  0  0  0  0  0  0  0  0  0  0  0
    6.7318    6.5529   21.4319 C   0  0  0  0  0  0  0  0  0  0  0  0
    6.3559    3.9004   20.7513 C   0  0  0  0  0  0  0  0  0  0  0  0
    6.9070    7.9471   21.7664 O   0  0  0  0  0  0  0  0  0  0  0  0
    9.2415    8.5572   24.3664 N   0  0  0  0  0  0  0  0  0  0  0  0
    8.8324    8.7435   22.9798 C   0  0  0  0  0  0  0  0  0  0  0  0
    7.3543    8.4354   22.9864 C   0  0  0  0  0  0  0  0  0  0  0  0
    7.2673    7.5082   24.1377 C   0  0  0  0  0  0  0  0  0  0  0  0
    8.2823    7.8291   25.2058 C   0  0  0  0  0  0  0  0  0  0  0  0
   10.4023    9.0320   24.8065 C   0  0  0  0  0  0  0  0  0  0  0  0
   10.7882   10.2432   24.4464 N   0  0  0  0  0  0  0  0  0  0  0  0
   11.3153    8.2884   25.7826 C   0  0  0  0  0  0  0  0  0  0  0  0
   10.5021   10.6212   23.5926 H   0  0  0  0  0  0  0  0  0  0  0  0
   11.3791   10.7167   25.0681 H   0  0  0  0  0  0  0  0  0  0  0  0
    5.0683    1.5890   20.8578 C   0  0  0  0  0  0  0  0  0  0  0  0
    3.9086    1.7064   20.4516 O   0  0  0  0  0  0  0  0  0  0  0  0
    5.4032    0.7537   21.7011 O   0  0  0  0  0  0  0  0  0  0  0  0
    3.7008    2.3562   19.8092 H   0  0  0  0  0  0  0  0  0  0  0  0
    5.9862    2.4680   18.7594 C   0  0  0  0  0  0  0  0  0  0  0  0
    7.7410    0.8156   18.1853 C   0  0  0  0  0  0  0  0  0  0  0  0
    6.4390    1.2352   17.9952 C   0  0  0  0  0  0  0  0  0  0  0  0
    5.6176    0.5205   17.1011 C   0  0  0  0  0  0  0  0  0  0  0  0
    6.1502   -0.5246   16.3373 C   0  0  0  0  0  0  0  0  0  0  0  0
    7.4904   -0.8866   16.5078 C   0  0  0  0  0  0  0  0  0  0  0  0
    8.0478   -1.9334   15.7727 C   0  0  0  0  0  0  0  0  0  0  0  0
    9.3827   -2.2910   15.9824 C   0  0  0  0  0  0  0  0  0  0  0  0
   10.1610   -1.6514   16.9628 C   0  0  0  0  0  0  0  0  0  0  0  0
    9.5886   -0.5729   17.6147 C   0  0  0  0  0  0  0  0  0  0  0  0
    8.2768   -0.2153   17.4523 C   0  0  0  0  0  0  0  0  0  0  0  0
   11.4383   -2.0684   17.3093 C   0  0  0  0  0  0  0  0  0  0  0  0
   12.1198   -1.3807   18.2283 N   0  0  0  0  0  0  0  0  0  0  0  0
   11.9649   -3.1554   16.7296 N   0  0  0  0  0  0  0  0  0  0  0  0
   13.0325   -1.5986   18.5453 H   0  0  0  0  0  0  0  0  0  0  0  0
   11.4085   -3.6457   16.0573 H   0  0  0  0  0  0  0  0  0  0  0  0
   12.8763   -3.5031   16.9350 H   0  0  0  0  0  0  0  0  0  0  0  0
   11.7031   -0.5293   18.5814 H   0  0  0  0  0  0  0  0  0  0  0  0
 18 15  1  0  0  0
 17 15  1  0  0  0
 15 14  1  0  0  0
 16 14  1  0  0  0
 14  9  1  0  0  0
  9 13  1  0  0  0
  9 10  1  0  0  0
 13 12  1  0  0  0
 10 11  1  0  0  0
 12 11  1  0  0  0
 11  8  1  0  0  0
  5  4  2  0  0  0
  5  6  1  0  0  0
  4  7  1  0  0  0
  8  6  1  0  0  0
  6  3  2  0  0  0
 21 19  2  0  0  0
  7  1  1  0  0  0
  7  2  2  0  0  0
 19  1  1  0  0  0
 19 20  1  0  0  0
  1 23  1  0  0  0
  3  2  1  0  0  0
 26 27  2  0  0  0
 26 25  1  0  0  0
 23 25  1  0  0  0
 27 28  1  0  0  0
 25 24  2  0  0  0
 28 29  2  0  0  0
 28 33  1  0  0  0
 24 33  1  0  0  0
 29 30  1  0  0  0
 33 32  2  0  0  0
 30 31  2  0  0  0
 32 31  1  0  0  0
 31 34  1  0  0  0
 38 36  1  0  0  0
 34 36  2  0  0  0
 34 35  1  0  0  0
 40 35  1  0  0  0
 36 39  1  0  0  0
 35 37  1  0  0  0
 20 22  1  0  0  0
M  END
> <minimizedAffinity>
-11.27345

$$$$
