


 30 34  0  0  0  0  0  0  0  0999 V2000
    5.7296    6.4960   22.2505 N   0  0  0  0  0  0  0  0  0  0  0  0
    5.1505    5.3156   22.5749 C   0  0  0  0  0  0  0  0  0  0  0  0
    5.5656    4.3176   21.5210 C   0  0  0  0  0  0  0  0  0  0  0  0
    6.1010    5.1678   20.3652 C   0  0  0  0  0  0  0  0  0  0  0  0
    6.5308    6.4511   21.0306 C   0  0  0  0  0  0  0  0  0  0  0  0
    4.4375    5.0918   23.5457 O   0  0  0  0  0  0  0  0  0  0  0  0
    4.4420    3.5292   21.0305 N   0  0  0  0  0  0  0  0  0  0  0  0
    3.6174    3.8303   21.5499 H   0  0  0  0  0  0  0  0  0  0  0  0
    4.5052    1.9003   21.1373 S   0  0  0  0  0  0  0  0  0  0  0  0
    3.1653    1.5929   20.7439 O   0  0  0  0  0  0  0  0  0  0  0  0
    4.9498    1.6347   22.4776 O   0  0  0  0  0  0  0  0  0  0  0  0
    6.9560    0.4346   18.1224 C   0  0  0  0  0  0  0  0  0  0  0  0
    7.5434   -0.1030   16.9449 C   0  0  0  0  0  0  0  0  0  0  0  0
    8.9597   -0.3297   16.9147 C   0  0  0  0  0  0  0  0  0  0  0  0
    9.7177   -0.0028   18.0857 C   0  0  0  0  0  0  0  0  0  0  0  0
    9.1251    0.5184   19.2111 N   0  0  0  0  0  0  0  0  0  0  0  0
    7.7455    0.7413   19.2342 C   0  0  0  0  0  0  0  0  0  0  0  0
    7.0694    1.2853   20.3664 C   0  0  0  0  0  0  0  0  0  0  0  0
    5.6927    1.3611   20.0157 C   0  0  0  0  0  0  0  0  0  0  0  0
    5.3468    0.7985   18.4371 S   0  0  0  0  0  0  0  0  0  0  0  0
    5.6311    7.7517   22.9970 C   0  0  0  0  0  0  0  0  0  0  0  0
    8.5072    7.6552   25.2435 C   0  0  0  0  0  0  0  0  0  0  0  0
    9.0351    8.5758   24.2474 C   0  0  0  0  0  0  0  0  0  0  0  0
   10.3487    9.1131   24.3877 C   0  0  0  0  0  0  0  0  0  0  0  0
   11.1037    8.7104   25.5298 C   0  0  0  0  0  0  0  0  0  0  0  0
   10.5656    7.8435   26.4442 N   0  0  0  0  0  0  0  0  0  0  0  0
    9.3236    7.3043   26.3589 C   0  0  0  0  0  0  0  0  0  0  0  0
    8.0403    8.7488   23.2718 C   0  0  0  0  0  0  0  0  0  0  0  0
    6.9620    7.9458   23.6949 C   0  0  0  0  0  0  0  0  0  0  0  0
    7.2334    7.3073   24.8482 N   0  0  0  0  0  0  0  0  0  0  0  0
 15 16  2  0  0  0
 15 14  1  0  0  0
 16 17  1  0  0  0
 14 13  2  0  0  0
 17 18  1  0  0  0
 17 12  2  0  0  0
 13 12  1  0  0  0
 18 19  2  0  0  0
 12 20  1  0  0  0
 19 20  1  0  0  0
 19  9  1  0  0  0
  4  5  1  0  0  0
  4  3  1  0  0  0
 10  9  2  0  0  0
  5  1  1  0  0  0
  7  9  1  0  0  0
  7  3  1  0  0  0
  9 11  2  0  0  0
  3  2  1  0  0  0
  1  2  1  0  0  0
  1 21  1  0  0  0
  2  6  2  0  0  0
 21 29  1  0  0  0
 28 29  2  0  0  0
 28 23  1  0  0  0
 29 30  1  0  0  0
 23 24  2  0  0  0
 23 22  1  0  0  0
 24 25  1  0  0  0
 30 22  2  0  0  0
 22 27  1  0  0  0
 25 26  1  0  0  0
 27 26  2  0  0  0
  7  8  1  0  0  0
M  END
> <minimizedAffinity>
-9.95753

$$$$



 30 34  0  0  0  0  0  0  0  0999 V2000
    5.7874    7.3734   22.2447 N   0  0  0  0  0  0  0  0  0  0  0  0
    6.1128    6.5339   21.2332 C   0  0  0  0  0  0  0  0  0  0  0  0
    5.2958    5.2787   21.4231 C   0  0  0  0  0  0  0  0  0  0  0  0
    4.7903    5.3546   22.8667 C   0  0  0  0  0  0  0  0  0  0  0  0
    4.8019    6.8306   23.1755 C   0  0  0  0  0  0  0  0  0  0  0  0
    6.9067    6.7529   20.3262 O   0  0  0  0  0  0  0  0  0  0  0  0
    6.0960    4.0690   21.2785 N   0  0  0  0  0  0  0  0  0  0  0  0
    6.7773    4.2486   20.5410 H   0  0  0  0  0  0  0  0  0  0  0  0
    5.3526    2.6618   20.9095 S   0  0  0  0  0  0  0  0  0  0  0  0
    4.1765    3.1814   20.2838 O   0  0  0  0  0  0  0  0  0  0  0  0
    5.2619    1.9536   22.1564 O   0  0  0  0  0  0  0  0  0  0  0  0
    7.3938    0.3644   18.1167 C   0  0  0  0  0  0  0  0  0  0  0  0
    7.8241   -0.4911   17.0662 C   0  0  0  0  0  0  0  0  0  0  0  0
    9.2266   -0.7490   16.9090 C   0  0  0  0  0  0  0  0  0  0  0  0
   10.1316   -0.1278   17.8299 C   0  0  0  0  0  0  0  0  0  0  0  0
    9.6892    0.6976   18.8361 N   0  0  0  0  0  0  0  0  0  0  0  0
    8.3222    0.9490   18.9827 C   0  0  0  0  0  0  0  0  0  0  0  0
    7.7977    1.8002   20.0002 C   0  0  0  0  0  0  0  0  0  0  0  0
    6.3850    1.8068   19.8315 C   0  0  0  0  0  0  0  0  0  0  0  0
    5.8367    0.8372   18.5326 S   0  0  0  0  0  0  0  0  0  0  0  0
    6.3109    8.7233   22.4624 C   0  0  0  0  0  0  0  0  0  0  0  0
    8.6390    7.8707   25.1421 C   0  0  0  0  0  0  0  0  0  0  0  0
    9.5184    8.7125   24.3443 C   0  0  0  0  0  0  0  0  0  0  0  0
   10.8643    8.9425   24.7564 C   0  0  0  0  0  0  0  0  0  0  0  0
   11.2962    8.3179   25.9647 C   0  0  0  0  0  0  0  0  0  0  0  0
   10.4331    7.5355   26.6859 N   0  0  0  0  0  0  0  0  0  0  0  0
    9.1456    7.2849   26.3397 C   0  0  0  0  0  0  0  0  0  0  0  0
    8.7784    9.1554   23.2364 C   0  0  0  0  0  0  0  0  0  0  0  0
    7.5002    8.5818   23.3907 C   0  0  0  0  0  0  0  0  0  0  0  0
    7.4173    7.8319   24.5052 N   0  0  0  0  0  0  0  0  0  0  0  0
 15 16  2  0  0  0
 15 14  1  0  0  0
 16 17  1  0  0  0
 14 13  2  0  0  0
 17 18  1  0  0  0
 17 12  2  0  0  0
 13 12  1  0  0  0
 18 19  2  0  0  0
 12 20  1  0  0  0
 19 20  1  0  0  0
 19  9  1  0  0  0
  4  5  1  0  0  0
  4  3  1  0  0  0
 10  9  2  0  0  0
  5  1  1  0  0  0
  7  9  1  0  0  0
  7  3  1  0  0  0
  9 11  2  0  0  0
  3  2  1  0  0  0
  1  2  1  0  0  0
  1 21  1  0  0  0
  2  6  2  0  0  0
 21 29  1  0  0  0
 28 29  2  0  0  0
 28 23  1  0  0  0
 29 30  1  0  0  0
 23 24  2  0  0  0
 23 22  1  0  0  0
 24 25  1  0  0  0
 30 22  2  0  0  0
 22 27  1  0  0  0
 25 26  1  0  0  0
 27 26  2  0  0  0
  7  8  1  0  0  0
M  END
> <minimizedAffinity>
-9.64704

$$$$



 30 34  0  0  0  0  0  0  0  0999 V2000
    3.5361    6.2749   22.7139 N   0  0  0  0  0  0  0  0  0  0  0  0
    3.9706    5.6867   21.5741 C   0  0  0  0  0  0  0  0  0  0  0  0
    3.6327    4.2191   21.6799 C   0  0  0  0  0  0  0  0  0  0  0  0
    3.3332    3.9918   23.1645 C   0  0  0  0  0  0  0  0  0  0  0  0
    2.9142    5.3530   23.6603 C   0  0  0  0  0  0  0  0  0  0  0  0
    4.5197    6.2387   20.6283 O   0  0  0  0  0  0  0  0  0  0  0  0
    4.7499    3.3639   21.2994 N   0  0  0  0  0  0  0  0  0  0  0  0
    5.1835    3.7873   20.4789 H   0  0  0  0  0  0  0  0  0  0  0  0
    4.4653    1.7972   20.9341 S   0  0  0  0  0  0  0  0  0  0  0  0
    3.1948    1.9388   20.2932 O   0  0  0  0  0  0  0  0  0  0  0  0
    4.5760    1.0999   22.1855 O   0  0  0  0  0  0  0  0  0  0  0  0
    7.0944    0.3651   18.0565 C   0  0  0  0  0  0  0  0  0  0  0  0
    7.7505   -0.1789   16.9189 C   0  0  0  0  0  0  0  0  0  0  0  0
    9.1767   -0.3318   16.9448 C   0  0  0  0  0  0  0  0  0  0  0  0
    9.8745    0.0722   18.1291 C   0  0  0  0  0  0  0  0  0  0  0  0
    9.2160    0.5978   19.2151 N   0  0  0  0  0  0  0  0  0  0  0  0
    7.8268    0.7486   19.1835 C   0  0  0  0  0  0  0  0  0  0  0  0
    7.0835    1.2929   20.2726 C   0  0  0  0  0  0  0  0  0  0  0  0
    5.7182    1.2850   19.8728 C   0  0  0  0  0  0  0  0  0  0  0  0
    5.4584    0.6541   18.3035 S   0  0  0  0  0  0  0  0  0  0  0  0
    3.6249    7.6967   23.0519 C   0  0  0  0  0  0  0  0  0  0  0  0
    7.0733    8.8884   22.9264 C   0  0  0  0  0  0  0  0  0  0  0  0
    7.1564    8.0982   24.1458 C   0  0  0  0  0  0  0  0  0  0  0  0
    8.3830    8.0161   24.8687 C   0  0  0  0  0  0  0  0  0  0  0  0
    9.5011    8.7337   24.3474 C   0  0  0  0  0  0  0  0  0  0  0  0
    9.3782    9.4629   23.1940 N   0  0  0  0  0  0  0  0  0  0  0  0
    8.2371    9.5740   22.4687 C   0  0  0  0  0  0  0  0  0  0  0  0
    5.8884    7.5367   24.3652 C   0  0  0  0  0  0  0  0  0  0  0  0
    5.0906    7.9928   23.2965 C   0  0  0  0  0  0  0  0  0  0  0  0
    5.7828    8.7819   22.4541 N   0  0  0  0  0  0  0  0  0  0  0  0
 15 16  2  0  0  0
 15 14  1  0  0  0
 16 17  1  0  0  0
 14 13  2  0  0  0
 17 18  1  0  0  0
 17 12  2  0  0  0
 13 12  1  0  0  0
 18 19  2  0  0  0
 12 20  1  0  0  0
 19 20  1  0  0  0
 19  9  1  0  0  0
  4  5  1  0  0  0
  4  3  1  0  0  0
 10  9  2  0  0  0
  5  1  1  0  0  0
  7  9  1  0  0  0
  7  3  1  0  0  0
  9 11  2  0  0  0
  3  2  1  0  0  0
  1  2  1  0  0  0
  1 21  1  0  0  0
  2  6  2  0  0  0
 21 29  1  0  0  0
 28 29  2  0  0  0
 28 23  1  0  0  0
 29 30  1  0  0  0
 23 24  2  0  0  0
 23 22  1  0  0  0
 24 25  1  0  0  0
 30 22  2  0  0  0
 22 27  1  0  0  0
 25 26  1  0  0  0
 27 26  2  0  0  0
  7  8  1  0  0  0
M  END
> <minimizedAffinity>
-8.82722

$$$$
