
 OpenBabel07192215303D

 38 43  0  0  0  0  0  0  0  0999 V2000
    4.6535    6.2210   18.2565 C   0  0  0  0  0  0  0  0  0  0  0  0
    5.1832    7.1087   17.5925 O   0  0  0  0  0  0  0  0  0  0  0  0
    4.3715    4.8346   17.5743 C   0  0  0  0  0  0  0  0  0  0  0  0
    3.7189    3.7807   18.3976 N   0  0  0  0  0  0  0  0  0  0  0  0
    3.6325    5.2532   20.4548 C   0  0  2  0  0  0  0  0  0  0  0  0
    4.0010    3.8298   19.8474 C   0  0  0  0  0  0  0  0  0  0  0  0
    4.2726    6.3463   19.6392 N   0  0  0  0  0  0  0  0  0  0  0  0
    4.8792    7.3033   20.5857 C   0  0  0  0  0  0  0  0  0  0  0  0
    7.5672    7.7434   23.2209 N   0  0  0  0  0  0  0  0  0  0  0  0
    7.8009    6.8837   21.9517 C   0  0  0  0  0  0  0  0  0  0  0  0
    6.1247    8.2599   23.4775 C   0  0  0  0  0  0  0  0  0  0  0  0
    5.2034    6.4143   21.8321 C   0  0  0  0  0  0  0  0  0  0  0  0
    4.2039    5.3545   21.7566 O   0  0  0  0  0  0  0  0  0  0  0  0
    6.6790    5.8122   21.7922 C   0  0  0  0  0  0  0  0  0  0  0  0
    5.0536    7.1431   23.2253 C   0  0  0  0  0  0  0  0  0  0  0  0
   10.8126    9.2864   24.7277 C   0  0  0  0  0  0  0  0  0  0  0  0
    8.6935    8.0642   24.1595 C   0  0  0  0  0  0  0  0  0  0  0  0
    9.7622    9.0241   23.7960 C   0  0  0  0  0  0  0  0  0  0  0  0
    8.7992    7.4365   25.4989 C   0  0  0  0  0  0  0  0  0  0  0  0
   10.8817    8.6811   25.9723 N   0  0  0  0  0  0  0  0  0  0  0  0
    9.9013    7.7795   26.3499 C   0  0  0  0  0  0  0  0  0  0  0  0
    3.3313    2.2187   17.8984 S   0  0  0  0  0  0  0  0  0  0  0  0
    2.4903    2.3699   16.5979 O   0  0  0  0  0  0  0  0  0  0  0  0
    2.5475    1.4803   18.9990 O   0  0  0  0  0  0  0  0  0  0  0  0
    5.9584    1.5746   18.3406 C   0  0  0  0  0  0  0  0  0  0  0  0
    4.7908    1.3705   17.4985 C   0  0  0  0  0  0  0  0  0  0  0  0
    7.2557   -0.2178   16.9647 C   0  0  0  0  0  0  0  0  0  0  0  0
    6.0570   -0.4144   16.1200 C   0  0  0  0  0  0  0  0  0  0  0  0
    4.8616    0.3576   16.3788 C   0  0  0  0  0  0  0  0  0  0  0  0
    7.1914    0.8338   18.1321 C   0  0  0  0  0  0  0  0  0  0  0  0
   11.1383   -1.5603   17.3819 Cl  0  0  0  0  0  0  0  0  0  0  0  0
    8.3817    1.0477   18.9821 C   0  0  0  0  0  0  0  0  0  0  0  0
    8.4989   -0.9431   16.7685 C   0  0  0  0  0  0  0  0  0  0  0  0
    9.5729    0.2975   18.7269 C   0  0  0  0  0  0  0  0  0  0  0  0
    9.6455   -0.6925   17.6335 C   0  0  0  0  0  0  0  0  0  0  0  0
    2.0552    5.2888   20.6013 C   0  0  0  0  0  0  0  0  0  0  0  0
    1.3675    6.0673   19.5832 O   0  0  0  0  0  0  0  0  0  0  0  0
    0.5167    5.3843   18.7583 C   0  0  0  0  0  0  0  0  0  0  0  0
  1  2  2  0  0  0  0
  1  3  1  0  0  0  0
  4  3  1  0  0  0  0
  4 22  1  0  0  0  0
  5 36  1  1  0  0  0
  5  7  1  0  0  0  0
  5  6  1  0  0  0  0
  6  4  1  0  0  0  0
  7  1  1  0  0  0  0
  8  7  1  0  0  0  0
  9 10  1  0  0  0  0
 10 14  1  0  0  0  0
 11 15  1  0  0  0  0
 11  9  1  0  0  0  0
 12 13  1  0  0  0  0
 12 14  1  0  0  0  0
 12  8  1  0  0  0  0
 13  5  1  0  0  0  0
 15 12  1  0  0  0  0
 16 18  2  0  0  0  0
 16 20  1  0  0  0  0
 17 19  2  0  0  0  0
 17  9  1  0  0  0  0
 18 17  1  0  0  0  0
 20 21  2  0  0  0  0
 21 19  1  0  0  0  0
 22 26  1  0  0  0  0
 22 23  2  0  0  0  0
 24 22  2  0  0  0  0
 25 30  1  0  0  0  0
 26 25  2  0  0  0  0
 27 33  2  0  0  0  0
 27 30  1  0  0  0  0
 28 27  1  0  0  0  0
 29 28  2  0  0  0  0
 29 26  1  0  0  0  0
 30 32  2  0  0  0  0
 32 34  1  0  0  0  0
 33 35  1  0  0  0  0
 35 31  1  0  0  0  0
 35 34  2  0  0  0  0
 37 36  1  0  0  0  0
 38 37  1  0  0  0  0
M  END
>  <minimizedAffinity>
-9.07946

$$$$
