
 OpenBabel07192215303D

 40 43  0  0  0  0  0  0  0  0999 V2000
    6.1778    2.4625   20.2710 C   0  0  1  0  0  0  0  0  0  0  0  0
    5.2501    4.7050   21.0473 C   0  0  0  0  0  0  0  0  0  0  0  0
    5.4405    6.0390   21.3823 C   0  0  0  0  0  0  0  0  0  0  0  0
    7.6475    4.4123   20.8117 C   0  0  0  0  0  0  0  0  0  0  0  0
    7.8373    5.7454   21.1507 C   0  0  0  0  0  0  0  0  0  0  0  0
    6.7318    6.5529   21.4319 C   0  0  0  0  0  0  0  0  0  0  0  0
    6.3559    3.9004   20.7513 C   0  0  0  0  0  0  0  0  0  0  0  0
    6.9070    7.9471   21.7664 O   0  0  0  0  0  0  0  0  0  0  0  0
    9.2415    8.5572   24.3664 N   0  0  0  0  0  0  0  0  0  0  0  0
    8.8324    8.7435   22.9798 C   0  0  0  0  0  0  0  0  0  0  0  0
    7.3543    8.4354   22.9864 C   0  0  2  0  0  0  0  0  0  0  0  0
    7.2673    7.5082   24.1377 C   0  0  0  0  0  0  0  0  0  0  0  0
    8.2823    7.8291   25.2058 C   0  0  0  0  0  0  0  0  0  0  0  0
   10.4023    9.0320   24.8065 C   0  0  1  0  0  0  0  0  0  0  0  0
   10.7882   10.2432   24.4464 N   0  0  0  0  0  0  0  0  0  0  0  0
   11.3153    8.2884   25.7826 C   0  0  0  0  0  0  0  0  0  0  0  0
   10.5021   10.6212   23.5926 H   0  0  0  0  0  0  0  0  0  0  0  0
   11.3791   10.7167   25.0681 H   0  0  0  0  0  0  0  0  0  0  0  0
    5.0683    1.5890   20.8578 C   0  0  0  0  0  0  0  0  0  0  0  0
    3.9086    1.7064   20.4516 O   0  0  0  0  0  0  0  0  0  0  0  0
    5.4032    0.7537   21.7011 O   0  0  0  0  0  0  0  0  0  0  0  0
    3.7008    2.3562   19.8092 H   0  0  0  0  0  0  0  0  0  0  0  0
    5.9862    2.4680   18.7594 C   0  0  0  0  0  0  0  0  0  0  0  0
    7.7410    0.8156   18.1853 C   0  0  0  0  0  0  0  0  0  0  0  0
    6.4390    1.2352   17.9952 C   0  0  0  0  0  0  0  0  0  0  0  0
    5.6176    0.5205   17.1011 C   0  0  0  0  0  0  0  0  0  0  0  0
    6.1502   -0.5246   16.3373 C   0  0  0  0  0  0  0  0  0  0  0  0
    7.4904   -0.8866   16.5078 C   0  0  0  0  0  0  0  0  0  0  0  0
    8.0478   -1.9334   15.7727 C   0  0  0  0  0  0  0  0  0  0  0  0
    9.3827   -2.2910   15.9824 C   0  0  0  0  0  0  0  0  0  0  0  0
   10.1610   -1.6514   16.9628 C   0  0  0  0  0  0  0  0  0  0  0  0
    9.5886   -0.5729   17.6147 C   0  0  0  0  0  0  0  0  0  0  0  0
    8.2768   -0.2153   17.4523 C   0  0  0  0  0  0  0  0  0  0  0  0
   11.4383   -2.0684   17.3093 C   0  0  0  0  0  0  0  0  0  0  0  0
   12.1198   -1.3807   18.2283 N   0  0  0  0  0  0  0  0  0  0  0  0
   11.9649   -3.1554   16.7296 N   0  0  0  0  0  0  0  0  0  0  0  0
   13.0325   -1.5986   18.5453 H   0  0  0  0  0  0  0  0  0  0  0  0
   11.4085   -3.6457   16.0573 H   0  0  0  0  0  0  0  0  0  0  0  0
   12.8763   -3.5031   16.9350 H   0  0  0  0  0  0  0  0  0  0  0  0
   11.7031   -0.5293   18.5814 H   0  0  0  0  0  0  0  0  0  0  0  0
  1 23  1  6  0  0  0
  3  2  1  0  0  0  0
  4  7  1  0  0  0  0
  5  4  2  0  0  0  0
  5  6  1  0  0  0  0
  6  3  2  0  0  0  0
  7  1  1  0  0  0  0
  7  2  2  0  0  0  0
  8  6  1  0  0  0  0
  9 13  1  0  0  0  0
  9 10  1  0  0  0  0
 10 11  1  0  0  0  0
 11  8  1  6  0  0  0
 12 11  1  0  0  0  0
 13 12  1  0  0  0  0
 14 16  1  1  0  0  0
 14  9  1  0  0  0  0
 15 14  1  0  0  0  0
 17 15  1  0  0  0  0
 18 15  1  0  0  0  0
 19  1  1  0  0  0  0
 19 20  1  0  0  0  0
 20 22  1  0  0  0  0
 21 19  2  0  0  0  0
 23 25  1  0  0  0  0
 24 33  1  0  0  0  0
 25 24  2  0  0  0  0
 26 27  2  0  0  0  0
 26 25  1  0  0  0  0
 27 28  1  0  0  0  0
 28 29  2  0  0  0  0
 28 33  1  0  0  0  0
 29 30  1  0  0  0  0
 30 31  2  0  0  0  0
 31 34  1  0  0  0  0
 32 31  1  0  0  0  0
 33 32  2  0  0  0  0
 34 36  2  0  0  0  0
 34 35  1  0  0  0  0
 35 37  1  0  0  0  0
 36 39  1  0  0  0  0
 38 36  1  0  0  0  0
 40 35  1  0  0  0  0
M  END
>  <minimizedAffinity>
-11.27345

$$$$
