
 OpenBabel07192215303D

 36 40  0  0  0  0  0  0  0  0999 V2000
    8.7010    6.5904   21.3122 N   0  0  0  0  0  0  0  0  0  0  0  0
    8.1087    7.7689   20.8443 C   0  0  0  0  0  0  0  0  0  0  0  0
    6.8421    7.7316   20.2373 N   0  0  0  0  0  0  0  0  0  0  0  0
    6.6078    6.3670   20.3374 C   0  0  0  0  0  0  0  0  0  0  0  0
    7.7145    5.6918   20.9754 C   0  0  0  0  0  0  0  0  0  0  0  0
    5.4688    5.6168   19.9003 C   0  0  0  0  0  0  0  0  0  0  0  0
    5.4440    4.2325   20.1081 C   0  0  0  0  0  0  0  0  0  0  0  0
    6.5285    3.5557   20.7373 C   0  0  0  0  0  0  0  0  0  0  0  0
    7.6732    4.2773   21.1762 C   0  0  0  0  0  0  0  0  0  0  0  0
    5.9976    8.8157   19.6624 C   0  0  0  0  0  0  0  0  0  0  0  0
    8.8690    9.0982   21.0099 C   0  0  0  0  0  0  0  0  0  0  0  0
    8.8639    9.6943   22.3633 N   0  0  0  0  0  0  0  0  0  0  0  0
    8.6017   10.6415   22.4212 H   0  0  0  0  0  0  0  0  0  0  0  0
    9.8188    7.7449   26.0863 C   0  0  0  0  0  0  0  0  0  0  0  0
   10.8083    8.4836   25.3570 C   0  0  0  0  0  0  0  0  0  0  0  0
   10.5019    9.1194   24.1432 C   0  0  0  0  0  0  0  0  0  0  0  0
    9.1982    9.0492   23.6046 C   0  0  0  0  0  0  0  0  0  0  0  0
    8.1954    8.3325   24.2887 C   0  0  0  0  0  0  0  0  0  0  0  0
    8.4956    7.6880   25.5128 C   0  0  0  0  0  0  0  0  0  0  0  0
   11.3489    7.0164   27.7777 N   0  0  0  0  0  0  0  0  0  0  0  0
    9.2517    6.5975   28.1227 N   0  0  0  0  0  0  0  0  0  0  0  0
   10.1326    7.1157   27.2937 C   0  0  0  0  0  0  0  0  0  0  0  0
   12.1133    7.3635   27.2634 H   0  0  0  0  0  0  0  0  0  0  0  0
   11.4967    6.5948   28.6550 H   0  0  0  0  0  0  0  0  0  0  0  0
    8.2951    6.6015   27.8901 H   0  0  0  0  0  0  0  0  0  0  0  0
    6.4348    2.0315   20.9406 C   0  0  0  0  0  0  0  0  0  0  0  0
    6.4552    1.2385   19.6578 N   0  0  0  0  0  0  0  0  0  0  0  0
    5.4205    0.7459   18.8276 C   0  0  0  0  0  0  0  0  0  0  0  0
    5.6940    0.0252   17.6662 N   0  0  0  0  0  0  0  0  0  0  0  0
    7.0719    0.0443   17.7370 C   0  0  0  0  0  0  0  0  0  0  0  0
    7.5297    0.7568   18.9129 C   0  0  0  0  0  0  0  0  0  0  0  0
    8.0173   -0.5312   16.8277 C   0  0  0  0  0  0  0  0  0  0  0  0
    9.3956   -0.3885   17.0943 C   0  0  0  0  0  0  0  0  0  0  0  0
    9.8504    0.3076   18.2407 C   0  0  0  0  0  0  0  0  0  0  0  0
    8.9401    0.8862   19.1528 C   0  0  0  0  0  0  0  0  0  0  0  0
    3.9567    0.9853   19.1656 C   0  0  0  0  0  0  0  0  0  0  0  0
  2  1  2  0  0  0  0
  2 11  1  0  0  0  0
  3  2  1  0  0  0  0
  4  3  1  0  0  0  0
  4  5  1  0  0  0  0
  5  1  1  0  0  0  0
  6  4  2  0  0  0  0
  7  6  1  0  0  0  0
  7  8  2  0  0  0  0
  8  9  1  0  0  0  0
  9  5  2  0  0  0  0
 10  3  1  0  0  0  0
 11 12  1  0  0  0  0
 12 17  1  0  0  0  0
 12 13  1  0  0  0  0
 14 22  1  0  0  0  0
 15 14  1  0  0  0  0
 16 15  2  0  0  0  0
 17 18  2  0  0  0  0
 17 16  1  0  0  0  0
 18 19  1  0  0  0  0
 19 14  2  0  0  0  0
 20 23  1  0  0  0  0
 20 24  1  0  0  0  0
 21 25  1  0  0  0  0
 22 21  2  0  0  0  0
 22 20  1  0  0  0  0
 26  8  1  0  0  0  0
 27 26  1  0  0  0  0
 28 27  1  0  0  0  0
 29 30  1  0  0  0  0
 29 28  2  0  0  0  0
 30 31  1  0  0  0  0
 31 27  1  0  0  0  0
 31 35  2  0  0  0  0
 32 30  2  0  0  0  0
 32 33  1  0  0  0  0
 33 34  2  0  0  0  0
 34 35  1  0  0  0  0
 36 28  1  0  0  0  0
M  END
>  <minimizedAffinity>
-12.43330

$$$$
