
 OpenBabel07192215303D

 39 43  0  0  0  0  0  0  0  0999 V2000
    4.3936    4.6339   21.1880 C   0  0  1  0  0  0  0  0  0  0  0  0
    3.9837    3.3889   20.3194 C   0  0  0  0  0  0  0  0  0  0  0  0
    4.6364    3.3831   18.9703 N   0  0  0  0  0  0  0  0  0  0  0  0
    4.3625    6.0201   19.0003 C   0  0  0  0  0  0  0  0  0  0  0  0
    4.2847    7.0483   18.3275 O   0  0  0  0  0  0  0  0  0  0  0  0
    4.5707    4.6755   18.2161 C   0  0  0  0  0  0  0  0  0  0  0  0
    4.2603    5.9715   20.4444 N   0  0  0  0  0  0  0  0  0  0  0  0
    4.5791    1.9289   18.0388 S   0  0  0  0  0  0  0  0  0  0  0  0
    4.0735    2.3049   16.6265 O   0  0  0  0  0  0  0  0  0  0  0  0
    3.5450    0.9901   18.6857 O   0  0  0  0  0  0  0  0  0  0  0  0
    6.4171    0.0822   17.0120 C   0  0  0  0  0  0  0  0  0  0  0  0
    6.1541    1.1501   17.9664 C   0  0  0  0  0  0  0  0  0  0  0  0
    8.8313   -0.1449   17.8899 C   0  0  0  0  0  0  0  0  0  0  0  0
    8.5441    0.9421   18.8479 C   0  0  0  0  0  0  0  0  0  0  0  0
    7.2486    1.5612   18.8786 C   0  0  0  0  0  0  0  0  0  0  0  0
    7.7161   -0.5872   16.9346 C   0  0  0  0  0  0  0  0  0  0  0  0
   11.9444   -2.7024   16.7918 Cl  0  0  0  0  0  0  0  0  0  0  0  0
    7.9998   -1.6732   15.9789 C   0  0  0  0  0  0  0  0  0  0  0  0
   10.1325   -0.8245   17.8131 C   0  0  0  0  0  0  0  0  0  0  0  0
    9.2877   -2.3013   15.9495 C   0  0  0  0  0  0  0  0  0  0  0  0
   10.3736   -1.8928   16.8604 C   0  0  0  0  0  0  0  0  0  0  0  0
    3.8744    4.4850   22.6349 C   0  0  0  0  0  0  0  0  0  0  0  0
    4.6146    4.4277   23.6020 O   0  0  0  0  0  0  0  0  0  0  0  0
    2.4983    4.3928   22.7013 O   0  0  0  0  0  0  0  0  0  0  0  0
    1.8197    4.5808   24.0025 C   0  0  0  0  0  0  0  0  0  0  0  0
    1.7653    6.0776   24.3615 C   0  0  0  0  0  0  0  0  0  0  0  0
    4.0452    7.2538   21.2219 C   0  0  0  0  0  0  0  0  0  0  0  0
    7.6367    7.3762   23.8463 N   0  0  0  0  0  0  0  0  0  0  0  0
    7.7114    6.8693   22.4134 C   0  0  0  0  0  0  0  0  0  0  0  0
    6.2491    7.3071   24.4616 C   0  0  0  0  0  0  0  0  0  0  0  0
    5.2441    7.8794   22.0176 C   0  0  0  0  0  0  0  0  0  0  0  0
    6.6700    7.4889   21.4241 C   0  0  0  0  0  0  0  0  0  0  0  0
    5.1032    7.9600   23.6111 C   0  0  0  0  0  0  0  0  0  0  0  0
   10.8257    9.4607   24.7703 C   0  0  0  0  0  0  0  0  0  0  0  0
    8.8391    7.9178   24.5884 C   0  0  0  0  0  0  0  0  0  0  0  0
    9.6954    8.9874   24.0213 C   0  0  0  0  0  0  0  0  0  0  0  0
    9.2370    7.4040   25.9272 C   0  0  0  0  0  0  0  0  0  0  0  0
   11.1673    8.9573   26.0168 N   0  0  0  0  0  0  0  0  0  0  0  0
   10.3942    7.9567   26.5811 C   0  0  0  0  0  0  0  0  0  0  0  0
  1 22  1  1  0  0  0
  1  2  1  0  0  0  0
  3  2  1  0  0  0  0
  3  8  1  0  0  0  0
  4  7  1  0  0  0  0
  4  6  1  0  0  0  0
  5  4  2  0  0  0  0
  6  3  1  0  0  0  0
  7  1  1  0  0  0  0
  8 12  1  0  0  0  0
  8  9  2  0  0  0  0
 10  8  2  0  0  0  0
 11 16  1  0  0  0  0
 12 11  2  0  0  0  0
 13 19  2  0  0  0  0
 13 16  1  0  0  0  0
 14 13  1  0  0  0  0
 15 14  2  0  0  0  0
 15 12  1  0  0  0  0
 16 18  2  0  0  0  0
 18 20  1  0  0  0  0
 19 21  1  0  0  0  0
 21 17  1  0  0  0  0
 21 20  2  0  0  0  0
 22 24  1  0  0  0  0
 23 22  2  0  0  0  0
 25 24  1  0  0  0  0
 25 26  1  0  0  0  0
 27  7  1  0  0  0  0
 28 30  1  0  0  0  0
 29 28  1  0  0  0  0
 31 33  1  0  0  0  0
 31 27  1  0  0  0  0
 32 29  1  0  0  0  0
 32 31  2  0  0  0  0
 33 30  2  0  0  0  0
 34 36  1  0  0  0  0
 35 36  2  0  0  0  0
 35 28  1  0  0  0  0
 37 35  1  0  0  0  0
 38 34  2  0  0  0  0
 39 38  1  0  0  0  0
 39 37  2  0  0  0  0
M  END
>  <minimizedAffinity>
-10.12796

$$$$
