


 43 47  0  0  0  0  0  0  0  0999 V2000
    8.3168    6.7210   20.5753 N   0  0  0  0  0  0  0  0  0  0  0  0
    7.6945    7.8423   21.1405 C   0  0  0  0  0  0  0  0  0  0  0  0
    6.4519    7.7150   21.8171 N   0  0  0  0  0  0  0  0  0  0  0  0
    6.2786    6.3350   21.6493 C   0  0  0  0  0  0  0  0  0  0  0  0
    7.4085    5.7507   20.9033 C   0  0  0  0  0  0  0  0  0  0  0  0
    5.1810    5.4719   22.0965 C   0  0  0  0  0  0  0  0  0  0  0  0
    5.2215    4.0813   21.7996 C   0  0  0  0  0  0  0  0  0  0  0  0
    6.3282    3.4518   21.0527 C   0  0  0  0  0  0  0  0  0  0  0  0
    7.4418    4.3177   20.6075 C   0  0  0  0  0  0  0  0  0  0  0  0
    5.5722    8.7333   22.4991 C   0  0  0  0  0  0  0  0  0  0  0  0
    4.9378    1.0923   20.9116 C   0  0  0  0  0  0  0  0  0  0  0  0
    6.2284    0.8402   21.6791 C   0  0  0  0  0  0  0  0  0  0  0  0
    6.1962    1.9108   20.5757 C   0  0  0  0  0  0  0  0  0  0  0  0
    6.4620    1.8272   18.9990 C   0  0  0  0  0  0  0  0  0  0  0  0
    5.7693    2.5432   18.1392 N   0  0  0  0  0  0  0  0  0  0  0  0
    7.3514    0.0736   17.2953 N   0  0  0  0  0  0  0  0  0  0  0  0
    7.6243    0.9427   18.4141 C   0  0  0  0  0  0  0  0  0  0  0  0
    8.9760    0.9814   18.9431 C   0  0  0  0  0  0  0  0  0  0  0  0
    9.9962    0.1538   18.3438 C   0  0  0  0  0  0  0  0  0  0  0  0
    9.7085   -0.7157   17.2279 C   0  0  0  0  0  0  0  0  0  0  0  0
    8.3779   -0.7558   16.6985 C   0  0  0  0  0  0  0  0  0  0  0  0
    4.6696    3.4680   18.5382 O   0  0  0  0  0  0  0  0  0  0  0  0
    4.5872    4.5600   17.6076 C   0  0  0  0  0  0  0  0  0  0  0  0
    4.4821    5.8981   18.3728 C   0  0  0  0  0  0  0  0  0  0  0  0
    3.5653    6.0406   19.2016 O   0  0  0  0  0  0  0  0  0  0  0  0
    5.4145    6.9017   18.1086 O   0  0  0  0  0  0  0  0  0  0  0  0
    6.0286    9.2624   18.0337 C   0  0  0  0  0  0  0  0  0  0  0  0
    4.9686    8.2312   18.4644 C   0  0  0  0  0  0  0  0  0  0  0  0
    8.4099    9.2104   20.9725 C   0  0  0  0  0  0  0  0  0  0  0  0
    8.9452    9.8026   22.2482 N   0  0  0  0  0  0  0  0  0  0  0  0
    9.0872   10.7766   22.2306 H   0  0  0  0  0  0  0  0  0  0  0  0
    9.8947    7.7797   26.0505 C   0  0  0  0  0  0  0  0  0  0  0  0
   10.9228    8.5220   25.3071 C   0  0  0  0  0  0  0  0  0  0  0  0
   10.6325    9.1858   24.0748 C   0  0  0  0  0  0  0  0  0  0  0  0
    9.2858    9.1464   23.5105 C   0  0  0  0  0  0  0  0  0  0  0  0
    8.2403    8.4313   24.2101 C   0  0  0  0  0  0  0  0  0  0  0  0
    8.5338    7.7575   25.4565 C   0  0  0  0  0  0  0  0  0  0  0  0
   11.4454    6.7919   27.6285 N   0  0  0  0  0  0  0  0  0  0  0  0
    9.3335    6.6527   28.1297 N   0  0  0  0  0  0  0  0  0  0  0  0
   10.2132    7.1196   27.2586 C   0  0  0  0  0  0  0  0  0  0  0  0
   12.2142    7.0688   27.0795 H   0  0  0  0  0  0  0  0  0  0  0  0
   11.5903    6.2719   28.4518 H   0  0  0  0  0  0  0  0  0  0  0  0
    8.3720    6.8145   27.9932 H   0  0  0  0  0  0  0  0  0  0  0  0
 25 24  2  0  0  0
 21 16  2  0  0  0
 21 20  1  0  0  0
 24 23  1  0  0  0
 24 26  1  0  0  0
 16 17  1  0  0  0
 23 22  1  0  0  0
 20 19  2  0  0  0
 28 26  1  0  0  0
 28 27  1  0  0  0
 15 22  1  0  0  0
 15 14  2  0  0  0
 17 14  1  0  0  0
 17 18  2  0  0  0
 19 18  1  0  0  0
 14 13  1  0  0  0
  6  7  1  0  0  0
  6  4  2  0  0  0
  7  8  2  0  0  0
 10  3  1  0  0  0
  4  3  1  0  0  0
  4  5  1  0  0  0
  8 13  1  0  0  0
  8  9  1  0  0  0
  3  2  1  0  0  0
 13 11  1  0  0  0
 13 12  1  0  0  0
 11 12  1  0  0  0
  5  9  2  0  0  0
  5  1  1  0  0  0
  2  1  2  0  0  0
  2 29  1  0  0  0
 29 30  1  0  0  0
 30 35  1  0  0  0
 35 36  2  0  0  0
 35 34  1  0  0  0
 36 37  1  0  0  0
 34 33  2  0  0  0
 37 32  2  0  0  0
 33 32  1  0  0  0
 32 40  1  0  0  0
 40 39  2  0  0  0
 40 38  1  0  0  0
 38 41  1  0  0  0
 38 42  1  0  0  0
 39 43  1  0  0  0
 30 31  1  0  0  0
M  END
> <minimizedAffinity>
-11.85141

$$$$



 43 47  0  0  0  0  0  0  0  0999 V2000
    8.5340    6.5215   20.8442 N   0  0  0  0  0  0  0  0  0  0  0  0
    7.9598    7.7814   20.6278 C   0  0  0  0  0  0  0  0  0  0  0  0
    6.5839    7.9013   20.2956 N   0  0  0  0  0  0  0  0  0  0  0  0
    6.2611    6.5381   20.3055 C   0  0  0  0  0  0  0  0  0  0  0  0
    7.4425    5.7212   20.6393 C   0  0  0  0  0  0  0  0  0  0  0  0
    4.9774    5.8819   20.0388 C   0  0  0  0  0  0  0  0  0  0  0  0
    4.8924    4.4634   20.1026 C   0  0  0  0  0  0  0  0  0  0  0  0
    6.0474    3.6037   20.4282 C   0  0  0  0  0  0  0  0  0  0  0  0
    7.3421    4.2625   20.7067 C   0  0  0  0  0  0  0  0  0  0  0  0
    5.7228    9.1061   20.0073 C   0  0  0  0  0  0  0  0  0  0  0  0
    4.6680    1.2605   20.7845 C   0  0  0  0  0  0  0  0  0  0  0  0
    5.9695    1.1719   21.5697 C   0  0  0  0  0  0  0  0  0  0  0  0
    5.9176    1.9978   20.2735 C   0  0  0  0  0  0  0  0  0  0  0  0
    6.1639    1.5987   18.7426 C   0  0  0  0  0  0  0  0  0  0  0  0
    5.3349    1.9634   17.7881 N   0  0  0  0  0  0  0  0  0  0  0  0
    7.3839   -0.0896   17.1837 N   0  0  0  0  0  0  0  0  0  0  0  0
    7.4577    0.8197   18.3015 C   0  0  0  0  0  0  0  0  0  0  0  0
    8.7381    0.9958   18.9632 C   0  0  0  0  0  0  0  0  0  0  0  0
    9.8874    0.2597   18.4919 C   0  0  0  0  0  0  0  0  0  0  0  0
    9.7986   -0.6513   17.3755 C   0  0  0  0  0  0  0  0  0  0  0  0
    8.5393   -0.8268   16.7155 C   0  0  0  0  0  0  0  0  0  0  0  0
    4.0917    2.7488   18.0356 O   0  0  0  0  0  0  0  0  0  0  0  0
    3.6548    3.3703   16.8157 C   0  0  0  0  0  0  0  0  0  0  0  0
    4.8535    4.0379   16.1054 C   0  0  0  0  0  0  0  0  0  0  0  0
    5.5510    4.8458   16.7447 O   0  0  0  0  0  0  0  0  0  0  0  0
    5.1130    3.7162   14.7729 O   0  0  0  0  0  0  0  0  0  0  0  0
    5.8282    1.4742   14.1267 C   0  0  0  0  0  0  0  0  0  0  0  0
    6.2751    2.8758   14.5832 C   0  0  0  0  0  0  0  0  0  0  0  0
    8.8942    9.0163   20.7457 C   0  0  0  0  0  0  0  0  0  0  0  0
    8.9653    9.6237   22.1207 N   0  0  0  0  0  0  0  0  0  0  0  0
    8.7760   10.5889   22.1627 H   0  0  0  0  0  0  0  0  0  0  0  0
    9.8263    7.6685   25.9791 C   0  0  0  0  0  0  0  0  0  0  0  0
   10.8027    8.5681   25.3484 C   0  0  0  0  0  0  0  0  0  0  0  0
   10.5397    9.2124   24.0997 C   0  0  0  0  0  0  0  0  0  0  0  0
    9.2740    8.9934   23.4043 C   0  0  0  0  0  0  0  0  0  0  0  0
    8.2806    8.1192   23.9900 C   0  0  0  0  0  0  0  0  0  0  0  0
    8.5469    7.4651   25.2529 C   0  0  0  0  0  0  0  0  0  0  0  0
   11.2765    6.4458   27.4866 N   0  0  0  0  0  0  0  0  0  0  0  0
    9.2597    6.8468   28.1954 N   0  0  0  0  0  0  0  0  0  0  0  0
   10.1189    7.0324   27.2065 C   0  0  0  0  0  0  0  0  0  0  0  0
   12.0213    6.4950   26.8447 H   0  0  0  0  0  0  0  0  0  0  0  0
   11.3900    5.9616   28.3363 H   0  0  0  0  0  0  0  0  0  0  0  0
    8.3520    7.2235   28.1361 H   0  0  0  0  0  0  0  0  0  0  0  0
 25 24  2  0  0  0
 21 16  2  0  0  0
 21 20  1  0  0  0
 24 23  1  0  0  0
 24 26  1  0  0  0
 16 17  1  0  0  0
 23 22  1  0  0  0
 20 19  2  0  0  0
 28 26  1  0  0  0
 28 27  1  0  0  0
 15 22  1  0  0  0
 15 14  2  0  0  0
 17 14  1  0  0  0
 17 18  2  0  0  0
 19 18  1  0  0  0
 14 13  1  0  0  0
  6  7  1  0  0  0
  6  4  2  0  0  0
  7  8  2  0  0  0
 10  3  1  0  0  0
  4  3  1  0  0  0
  4  5  1  0  0  0
  8 13  1  0  0  0
  8  9  1  0  0  0
  3  2  1  0  0  0
 13 11  1  0  0  0
 13 12  1  0  0  0
 11 12  1  0  0  0
  5  9  2  0  0  0
  5  1  1  0  0  0
  2  1  2  0  0  0
  2 29  1  0  0  0
 29 30  1  0  0  0
 30 35  1  0  0  0
 35 36  2  0  0  0
 35 34  1  0  0  0
 36 37  1  0  0  0
 34 33  2  0  0  0
 37 32  2  0  0  0
 33 32  1  0  0  0
 32 40  1  0  0  0
 40 39  2  0  0  0
 40 38  1  0  0  0
 38 41  1  0  0  0
 38 42  1  0  0  0
 39 43  1  0  0  0
 30 31  1  0  0  0
M  END
> <minimizedAffinity>
-11.67330

$$$$



 43 47  0  0  0  0  0  0  0  0999 V2000
    7.2399    3.6470   19.8753 N   0  0  0  0  0  0  0  0  0  0  0  0
    6.3382    2.6504   20.2725 C   0  0  0  0  0  0  0  0  0  0  0  0
    5.4492    2.8710   21.3583 N   0  0  0  0  0  0  0  0  0  0  0  0
    5.8518    4.1741   21.6787 C   0  0  0  0  0  0  0  0  0  0  0  0
    6.9270    4.6280   20.7773 C   0  0  0  0  0  0  0  0  0  0  0  0
    5.3623    5.0688   22.7320 C   0  0  0  0  0  0  0  0  0  0  0  0
    5.9366    6.3627   22.8708 C   0  0  0  0  0  0  0  0  0  0  0  0
    7.0168    6.8598   21.9962 C   0  0  0  0  0  0  0  0  0  0  0  0
    7.5072    5.9634   20.9265 C   0  0  0  0  0  0  0  0  0  0  0  0
    4.4012    1.9898   21.9916 C   0  0  0  0  0  0  0  0  0  0  0  0
    7.3984    9.5459   21.5970 C   0  0  0  0  0  0  0  0  0  0  0  0
    8.7041    8.8272   21.2856 C   0  0  0  0  0  0  0  0  0  0  0  0
    7.7563    8.2547   22.3526 C   0  0  0  0  0  0  0  0  0  0  0  0
    7.6322    8.5247   23.9259 C   0  0  0  0  0  0  0  0  0  0  0  0
    6.5074    8.9324   24.4738 N   0  0  0  0  0  0  0  0  0  0  0  0
    8.6403    7.3185   25.9991 N   0  0  0  0  0  0  0  0  0  0  0  0
    8.8328    8.2333   24.9001 C   0  0  0  0  0  0  0  0  0  0  0  0
   10.1431    8.8340   24.7249 C   0  0  0  0  0  0  0  0  0  0  0  0
   11.2031    8.5060   25.6488 C   0  0  0  0  0  0  0  0  0  0  0  0
   10.9956    7.5930   26.7478 C   0  0  0  0  0  0  0  0  0  0  0  0
    9.7064    6.9938   26.9241 C   0  0  0  0  0  0  0  0  0  0  0  0
    5.2653    9.2038   23.6945 O   0  0  0  0  0  0  0  0  0  0  0  0
    4.1358    8.6040   24.3501 C   0  0  0  0  0  0  0  0  0  0  0  0
    3.3596    9.6751   25.1485 C   0  0  0  0  0  0  0  0  0  0  0  0
    3.8300   10.0695   26.2306 O   0  0  0  0  0  0  0  0  0  0  0  0
    2.1582   10.1623   24.6331 O   0  0  0  0  0  0  0  0  0  0  0  0
    0.4966    8.8449   25.8412 C   0  0  0  0  0  0  0  0  0  0  0  0
    1.1322    9.1551   24.4728 C   0  0  0  0  0  0  0  0  0  0  0  0
    6.3760    1.3080   19.4924 C   0  0  0  0  0  0  0  0  0  0  0  0
    7.2996    1.2953   18.3044 N   0  0  0  0  0  0  0  0  0  0  0  0
    7.2058    2.0608   17.6926 H   0  0  0  0  0  0  0  0  0  0  0  0
   10.3166   -1.6804   17.0822 C   0  0  0  0  0  0  0  0  0  0  0  0
   10.5968   -0.7078   18.1480 C   0  0  0  0  0  0  0  0  0  0  0  0
    9.6302    0.2618   18.5590 C   0  0  0  0  0  0  0  0  0  0  0  0
    8.3161    0.3147   17.9233 C   0  0  0  0  0  0  0  0  0  0  0  0
    7.9941   -0.6265   16.8723 C   0  0  0  0  0  0  0  0  0  0  0  0
    8.9728   -1.6070   16.4544 C   0  0  0  0  0  0  0  0  0  0  0  0
   11.0240   -3.8269   16.2088 N   0  0  0  0  0  0  0  0  0  0  0  0
   12.6032   -2.4640   16.8247 N   0  0  0  0  0  0  0  0  0  0  0  0
   11.2964   -2.6181   16.6852 C   0  0  0  0  0  0  0  0  0  0  0  0
   10.0900   -4.0942   16.0493 H   0  0  0  0  0  0  0  0  0  0  0  0
   11.7560   -4.4561   16.0149 H   0  0  0  0  0  0  0  0  0  0  0  0
   12.9648   -1.6157   17.1696 H   0  0  0  0  0  0  0  0  0  0  0  0
 25 24  2  0  0  0
 21 16  2  0  0  0
 21 20  1  0  0  0
 24 23  1  0  0  0
 24 26  1  0  0  0
 16 17  1  0  0  0
 23 22  1  0  0  0
 20 19  2  0  0  0
 28 26  1  0  0  0
 28 27  1  0  0  0
 15 22  1  0  0  0
 15 14  2  0  0  0
 17 14  1  0  0  0
 17 18  2  0  0  0
 19 18  1  0  0  0
 14 13  1  0  0  0
  6  7  1  0  0  0
  6  4  2  0  0  0
  7  8  2  0  0  0
 10  3  1  0  0  0
  4  3  1  0  0  0
  4  5  1  0  0  0
  8 13  1  0  0  0
  8  9  1  0  0  0
  3  2  1  0  0  0
 13 11  1  0  0  0
 13 12  1  0  0  0
 11 12  1  0  0  0
  5  9  2  0  0  0
  5  1  1  0  0  0
  2  1  2  0  0  0
  2 29  1  0  0  0
 29 30  1  0  0  0
 30 35  1  0  0  0
 35 36  2  0  0  0
 35 34  1  0  0  0
 36 37  1  0  0  0
 34 33  2  0  0  0
 37 32  2  0  0  0
 33 32  1  0  0  0
 32 40  1  0  0  0
 40 39  2  0  0  0
 40 38  1  0  0  0
 38 41  1  0  0  0
 38 42  1  0  0  0
 39 43  1  0  0  0
 30 31  1  0  0  0
M  END
> <minimizedAffinity>
-11.50449

$$$$
