
 OpenBabel07192215303D

 30 34  0  0  0  0  0  0  0  0999 V2000
    5.7874    7.3734   22.2447 N   0  0  0  0  0  0  0  0  0  0  0  0
    6.1128    6.5339   21.2332 C   0  0  0  0  0  0  0  0  0  0  0  0
    5.2958    5.2787   21.4231 C   0  0  2  0  0  0  0  0  0  0  0  0
    4.7903    5.3546   22.8667 C   0  0  0  0  0  0  0  0  0  0  0  0
    4.8019    6.8306   23.1755 C   0  0  0  0  0  0  0  0  0  0  0  0
    6.9067    6.7529   20.3262 O   0  0  0  0  0  0  0  0  0  0  0  0
    6.0960    4.0690   21.2785 N   0  0  0  0  0  0  0  0  0  0  0  0
    6.7773    4.2486   20.5410 H   0  0  0  0  0  0  0  0  0  0  0  0
    5.3526    2.6618   20.9095 S   0  0  0  0  0  0  0  0  0  0  0  0
    4.1765    3.1814   20.2838 O   0  0  0  0  0  0  0  0  0  0  0  0
    5.2619    1.9536   22.1564 O   0  0  0  0  0  0  0  0  0  0  0  0
    7.3938    0.3644   18.1167 C   0  0  0  0  0  0  0  0  0  0  0  0
    7.8241   -0.4911   17.0662 C   0  0  0  0  0  0  0  0  0  0  0  0
    9.2266   -0.7490   16.9090 C   0  0  0  0  0  0  0  0  0  0  0  0
   10.1316   -0.1278   17.8299 C   0  0  0  0  0  0  0  0  0  0  0  0
    9.6892    0.6976   18.8361 N   0  0  0  0  0  0  0  0  0  0  0  0
    8.3222    0.9490   18.9827 C   0  0  0  0  0  0  0  0  0  0  0  0
    7.7977    1.8002   20.0002 C   0  0  0  0  0  0  0  0  0  0  0  0
    6.3850    1.8068   19.8315 C   0  0  0  0  0  0  0  0  0  0  0  0
    5.8367    0.8372   18.5326 S   0  0  0  0  0  0  0  0  0  0  0  0
    6.3109    8.7233   22.4624 C   0  0  0  0  0  0  0  0  0  0  0  0
    8.6390    7.8707   25.1421 C   0  0  0  0  0  0  0  0  0  0  0  0
    9.5184    8.7125   24.3443 C   0  0  0  0  0  0  0  0  0  0  0  0
   10.8643    8.9425   24.7564 C   0  0  0  0  0  0  0  0  0  0  0  0
   11.2962    8.3179   25.9647 C   0  0  0  0  0  0  0  0  0  0  0  0
   10.4331    7.5355   26.6859 N   0  0  0  0  0  0  0  0  0  0  0  0
    9.1456    7.2849   26.3397 C   0  0  0  0  0  0  0  0  0  0  0  0
    8.7784    9.1554   23.2364 C   0  0  0  0  0  0  0  0  0  0  0  0
    7.5002    8.5818   23.3907 C   0  0  0  0  0  0  0  0  0  0  0  0
    7.4173    7.8319   24.5052 N   0  0  0  0  0  0  0  0  0  0  0  0
  1  2  1  0  0  0  0
  1 21  1  0  0  0  0
  2  6  2  0  0  0  0
  3  7  1  1  0  0  0
  3  2  1  0  0  0  0
  4  5  1  0  0  0  0
  4  3  1  0  0  0  0
  5  1  1  0  0  0  0
  7  9  1  0  0  0  0
  7  8  1  0  0  0  0
  9 11  2  0  0  0  0
 10  9  2  0  0  0  0
 12 20  1  0  0  0  0
 13 12  1  0  0  0  0
 14 13  2  0  0  0  0
 15 16  2  0  0  0  0
 15 14  1  0  0  0  0
 16 17  1  0  0  0  0
 17 18  1  0  0  0  0
 17 12  2  0  0  0  0
 18 19  2  0  0  0  0
 19 20  1  0  0  0  0
 19  9  1  0  0  0  0
 21 29  1  0  0  0  0
 22 27  1  0  0  0  0
 23 24  2  0  0  0  0
 23 22  1  0  0  0  0
 24 25  1  0  0  0  0
 25 26  1  0  0  0  0
 27 26  2  0  0  0  0
 28 29  2  0  0  0  0
 28 23  1  0  0  0  0
 29 30  1  0  0  0  0
 30 22  2  0  0  0  0
M  END
>  <minimizedAffinity>
-9.64704

$$$$
