
 OpenBabel07192215303D

 40 42  0  0  0  0  0  0  0  0999 V2000
    5.1696    4.3400   22.4668 C   0  0  0  0  0  0  0  0  0  0  0  0
    5.3934    5.6868   22.2921 N   0  0  0  0  0  0  0  0  0  0  0  0
    4.4236    3.9171   23.3571 O   0  0  0  0  0  0  0  0  0  0  0  0
    5.9974    5.9703   21.5682 H   0  0  0  0  0  0  0  0  0  0  0  0
    7.0462    3.8849   20.8208 C   0  0  0  0  0  0  0  0  0  0  0  0
    5.8894    3.4389   21.5242 C   0  0  0  0  0  0  0  0  0  0  0  0
    5.4470    2.0985   21.2951 C   0  0  0  0  0  0  0  0  0  0  0  0
    6.1449    1.2475   20.3951 C   0  0  0  0  0  0  0  0  0  0  0  0
    7.2947    1.6951   19.6978 C   0  0  0  0  0  0  0  0  0  0  0  0
    7.7286    3.0270   19.9291 C   0  0  0  0  0  0  0  0  0  0  0  0
    7.3553    0.0689   17.7263 C   0  0  0  0  0  0  0  0  0  0  0  0
    8.0396    0.7895   18.7369 C   0  0  0  0  0  0  0  0  0  0  0  0
    9.4461    0.6344   18.8166 C   0  0  0  0  0  0  0  0  0  0  0  0
   10.1593   -0.2053   17.9243 C   0  0  0  0  0  0  0  0  0  0  0  0
    9.4678   -0.9214   16.9187 C   0  0  0  0  0  0  0  0  0  0  0  0
    8.0572   -0.7839   16.8173 C   0  0  0  0  0  0  0  0  0  0  0  0
    7.3021   -1.5355   15.7574 C   0  0  0  0  0  0  0  0  0  0  0  0
    8.2154   -2.2284   14.8417 N   0  0  0  0  0  0  0  0  0  0  0  0
    8.7742   -2.9027   15.3645 H   0  0  0  0  0  0  0  0  0  0  0  0
    8.8317   -1.5482   14.3969 H   0  0  0  0  0  0  0  0  0  0  0  0
    4.7766    6.7221   23.1312 C   0  0  2  0  0  0  0  0  0  0  0  0
    4.1780    7.7960   22.2084 C   0  0  0  0  0  0  0  0  0  0  0  0
    5.8606    7.2966   24.1196 C   0  0  2  0  0  0  0  0  0  0  0  0
    5.2026    8.4057   24.9857 C   0  0  0  0  0  0  0  0  0  0  0  0
    5.6236    9.5223   25.1071 O   0  0  0  0  0  0  0  0  0  0  0  0
    3.9540    7.9887   25.5373 O   0  0  0  0  0  0  0  0  0  0  0  0
    2.9389    8.9638   25.8195 C   0  0  0  0  0  0  0  0  0  0  0  0
    7.0982    7.8646   23.3321 C   0  0  0  0  0  0  0  0  0  0  0  0
    8.6893    7.4139   25.3224 C   0  0  0  0  0  0  0  0  0  0  0  0
    9.9080    7.6540   26.0046 C   0  0  0  0  0  0  0  0  0  0  0  0
   10.8390    8.5811   25.4633 C   0  0  0  0  0  0  0  0  0  0  0  0
   10.5513    9.2517   24.2593 C   0  0  0  0  0  0  0  0  0  0  0  0
    9.3379    9.0062   23.5873 C   0  0  0  0  0  0  0  0  0  0  0  0
    8.3902    8.0860   24.1057 C   0  0  0  0  0  0  0  0  0  0  0  0
   10.2118    6.9600   27.2611 C   0  0  0  0  0  0  0  0  0  0  0  0
   11.4269    6.4132   27.4639 N   0  0  0  0  0  0  0  0  0  0  0  0
    9.2812    6.8674   28.2219 N   0  0  0  0  0  0  0  0  0  0  0  0
   12.1176    6.4753   26.7651 H   0  0  0  0  0  0  0  0  0  0  0  0
    8.3904    7.2633   28.0842 H   0  0  0  0  0  0  0  0  0  0  0  0
    9.4887    6.4036   29.0651 H   0  0  0  0  0  0  0  0  0  0  0  0
  1  3  2  0  0  0  0
  2  1  1  0  0  0  0
  2 21  1  0  0  0  0
  2  4  1  0  0  0  0
  5  6  1  0  0  0  0
  6  1  1  0  0  0  0
  7  6  2  0  0  0  0
  8  7  1  0  0  0  0
  9 10  1  0  0  0  0
  9  8  2  0  0  0  0
 10  5  2  0  0  0  0
 11 12  1  0  0  0  0
 12 13  2  0  0  0  0
 12  9  1  0  0  0  0
 14 13  1  0  0  0  0
 15 14  2  0  0  0  0
 16 15  1  0  0  0  0
 16 11  2  0  0  0  0
 17 16  1  0  0  0  0
 18 17  1  0  0  0  0
 18 19  1  0  0  0  0
 18 20  1  0  0  0  0
 21 22  1  6  0  0  0
 21 23  1  0  0  0  0
 23 28  1  6  0  0  0
 23 24  1  0  0  0  0
 24 25  2  0  0  0  0
 24 26  1  0  0  0  0
 26 27  1  0  0  0  0
 28 34  1  0  0  0  0
 29 30  1  0  0  0  0
 30 35  1  0  0  0  0
 31 30  2  0  0  0  0
 32 31  1  0  0  0  0
 33 34  1  0  0  0  0
 33 32  2  0  0  0  0
 34 29  2  0  0  0  0
 35 36  2  0  0  0  0
 35 37  1  0  0  0  0
 36 38  1  0  0  0  0
 37 39  1  0  0  0  0
 37 40  1  0  0  0  0
M  END
>  <minimizedAffinity>
-13.82872

$$$$
