BDB12751
 OpenBabel07192215303D

 41 44  0  0  0  0  0  0  0  0999 V2000
    6.4440    6.4007   22.8787 C   0  0  0  0  0  0  0  0  0  0  0  0
    7.5664    6.4004   22.4115 O   0  0  0  0  0  0  0  0  0  0  0  0
    5.6393    5.3439   22.5628 N   0  0  0  0  0  0  0  0  0  0  0  0
    4.7182    5.2921   22.9297 H   0  0  0  0  0  0  0  0  0  0  0  0
    5.9574    7.4951   23.7702 C   0  0  0  0  0  0  0  0  0  0  0  0
    4.6113    7.7867   23.9166 C   0  0  0  0  0  0  0  0  0  0  0  0
    5.8727    9.1316   25.1513 N   0  0  0  0  0  0  0  0  0  0  0  0
    6.6600    8.3408   24.5409 N   0  0  0  0  0  0  0  0  0  0  0  0
    4.6214    8.8409   24.8106 C   0  0  0  0  0  0  0  0  0  0  0  0
    3.3967    9.5489   25.3174 C   0  0  0  0  0  0  0  0  0  0  0  0
    8.7078    7.7580   25.7828 C   0  0  0  0  0  0  0  0  0  0  0  0
   10.0896    7.8370   25.9505 C   0  0  0  0  0  0  0  0  0  0  0  0
   10.8752    8.5680   25.0714 C   0  0  0  0  0  0  0  0  0  0  0  0
   10.2883    9.2284   24.0131 C   0  0  0  0  0  0  0  0  0  0  0  0
    8.9182    9.1381   23.8635 C   0  0  0  0  0  0  0  0  0  0  0  0
    8.1025    8.4187   24.7216 C   0  0  0  0  0  0  0  0  0  0  0  0
   10.7562    7.1629   27.0428 C   0  0  0  0  0  0  0  0  0  0  0  0
   12.1520    6.8430   26.9193 N   0  0  0  0  0  0  0  0  0  0  0  0
   10.1276    6.8530   28.1013 N   0  3  0  0  0  0  0  0  0  0  0  0
   12.6747    7.0897   26.0637 H   0  0  0  0  0  0  0  0  0  0  0  0
   12.6336    6.3669   27.6846 H   0  0  0  0  0  0  0  0  0  0  0  0
    9.1636    7.0685   28.1982 H   0  0  0  0  0  0  0  0  0  0  0  0
   10.6054    6.3921   28.8349 H   0  0  0  0  0  0  0  0  0  0  0  0
    6.1055    4.3153   21.7297 C   0  0  0  0  0  0  0  0  0  0  0  0
    6.5046    1.9794   21.1872 C   0  0  0  0  0  0  0  0  0  0  0  0
    6.0191    2.9576   22.0463 C   0  0  0  0  0  0  0  0  0  0  0  0
    6.6759    4.6901   20.5347 C   0  0  0  0  0  0  0  0  0  0  0  0
    7.1486    3.7089   19.6907 C   0  0  0  0  0  0  0  0  0  0  0  0
    7.0854    2.3698   19.9884 C   0  0  0  0  0  0  0  0  0  0  0  0
    7.6237    1.3779   19.0627 C   0  0  0  0  0  0  0  0  0  0  0  0
    7.5268   -0.2442   17.2985 C   0  0  0  0  0  0  0  0  0  0  0  0
    6.8613    0.6676   18.1119 C   0  0  0  0  0  0  0  0  0  0  0  0
    8.9937    1.1505   19.1553 C   0  0  0  0  0  0  0  0  0  0  0  0
    9.6346    0.2352   18.3327 C   0  0  0  0  0  0  0  0  0  0  0  0
    8.8929   -0.4666   17.3975 C   0  0  0  0  0  0  0  0  0  0  0  0
    4.6553   -0.4684   16.6707 N   0  0  0  0  0  0  0  0  0  0  0  0
    5.0372    0.7671   17.7555 S   0  0  0  0  0  0  0  0  0  0  0  0
    4.3045    0.5177   19.0572 O   0  0  0  0  0  0  0  0  0  0  0  0
    4.4235    2.0153   17.1603 O   0  0  0  0  0  0  0  0  0  0  0  0
    3.7758   -0.4598   16.2054 H   0  0  0  0  0  0  0  0  0  0  0  0
    5.3285   -1.1595   16.4505 H   0  0  0  0  0  0  0  0  0  0  0  0
  1  3  1  0  0  0  0
  1  2  2  0  0  0  0
  3 24  1  0  0  0  0
  3  4  1  0  0  0  0
  5  6  2  0  0  0  0
  5  1  1  0  0  0  0
  7  8  1  0  0  0  0
  8  5  1  0  0  0  0
  9  7  2  0  0  0  0
  9  6  1  0  0  0  0
  9 10  1  0  0  0  0
 11 12  2  0  0  0  0
 11 16  1  0  0  0  0
 12 13  1  0  0  0  0
 12 17  1  0  0  0  0
 13 14  2  0  0  0  0
 14 15  1  0  0  0  0
 15 16  2  0  0  0  0
 16  8  1  0  0  0  0
 17 19  2  0  0  0  0
 17 18  1  0  0  0  0
 18 20  1  0  0  0  0
 18 21  1  0  0  0  0
 19 22  1  0  0  0  0
 19 23  1  0  0  0  0
 24 27  1  0  0  0  0
 25 26  1  0  0  0  0
 25 29  2  0  0  0  0
 26 24  2  0  0  0  0
 27 28  2  0  0  0  0
 28 29  1  0  0  0  0
 29 30  1  0  0  0  0
 30 33  1  0  0  0  0
 31 32  1  0  0  0  0
 31 35  2  0  0  0  0
 32 30  2  0  0  0  0
 32 37  1  0  0  0  0
 33 34  2  0  0  0  0
 34 35  1  0  0  0  0
 36 40  1  0  0  0  0
 36 41  1  0  0  0  0
 37 36  1  0  0  0  0
 37 39  2  0  0  0  0
 37 38  2  0  0  0  0
M  CHG  1  19   1
M  END
>  <minimizedAffinity>
-12.98712

$$$$
