ZINC14733558


 37 41  0  0  0  0  0  0  0  0999 V2000
    6.3389    8.1430   22.6118 N   0  0  0  0  0  0  0  0  0  0  0  0
    6.2262    7.0530   21.8351 C   0  0  0  0  0  0  0  0  0  0  0  0
    4.9137    6.9159   21.5238 C   0  0  0  0  0  0  0  0  0  0  0  0
    4.2544    7.9862   22.1513 C   0  0  0  0  0  0  0  0  0  0  0  0
    5.1811    8.6794   22.7904 N   0  0  0  0  0  0  0  0  0  0  0  0
    4.3510    5.8244   20.6558 C   0  0  0  0  0  0  0  0  0  0  0  0
    5.5096    5.1691   19.8916 C   0  0  0  0  0  0  0  0  0  0  0  0
    6.6353    4.8214   20.8695 C   0  0  0  0  0  0  0  0  0  0  0  0
    7.3039    6.1099   21.3654 C   0  0  0  0  0  0  0  0  0  0  0  0
    2.8067    8.2765   22.1102 C   0  0  0  0  0  0  0  0  0  0  0  0
    2.3248    8.8290   21.1404 O   0  0  0  0  0  0  0  0  0  0  0  0
    2.0200    7.9290   23.1479 N   0  0  0  0  0  0  0  0  0  0  0  0
    2.5750    7.1257   24.2385 C   0  0  0  0  0  0  0  0  0  0  0  0
    2.5895    7.9643   25.5275 C   0  0  0  0  0  0  0  0  0  0  0  0
    0.8945    8.5225   25.8759 S   0  0  0  0  0  0  0  0  0  0  0  0
    0.3996    9.3340   24.3260 C   0  0  0  0  0  0  0  0  0  0  0  0
    0.6196    8.3543   23.1677 C   0  0  0  0  0  0  0  0  0  0  0  0
    5.0249    3.9373   19.2407 N   0  0  0  0  0  0  0  0  0  0  0  0
    4.4954    4.1839   18.3924 H   0  0  0  0  0  0  0  0  0  0  0  0
    4.4060    3.4295   19.8888 H   0  0  0  0  0  0  0  0  0  0  0  0
    6.1611    3.0718   18.8721 C   0  0  0  0  0  0  0  0  0  0  0  0
    5.8507    1.6326   19.2884 C   0  0  0  0  0  0  0  0  0  0  0  0
    7.0495    1.0489   20.0386 C   0  0  0  0  0  0  0  0  0  0  0  0
    8.2777    1.0623   19.1264 C   0  0  0  0  0  0  0  0  0  0  0  0
    7.9968    0.2203   17.8802 C   0  0  0  0  0  0  0  0  0  0  0  0
    6.7979    0.8041   17.1300 C   0  0  0  0  0  0  0  0  0  0  0  0
    5.5696    0.7906   18.0422 C   0  0  0  0  0  0  0  0  0  0  0  0
    5.0869    1.2763   21.5578 C   0  0  0  0  0  0  0  0  0  0  0  0
    3.8651    1.3567   22.4759 C   0  0  0  0  0  0  0  0  0  0  0  0
    2.8152    0.3441   22.0101 C   0  0  0  0  0  0  0  0  0  0  0  0
    2.4465    0.6367   20.5530 C   0  0  0  0  0  0  0  0  0  0  0  0
    3.7094    0.5772   19.6906 C   0  0  0  0  0  0  0  0  0  0  0  0
    4.6694    1.5917   20.1749 N   0  0  0  0  0  0  0  0  0  0  0  0
    4.2117    2.5144   20.1669 H   0  0  0  0  0  0  0  0  0  0  0  0
    7.5941    8.6475   23.1738 C   0  0  0  0  0  0  0  0  0  0  0  0
    8.5276    7.6107   25.1775 C   0  0  0  0  0  0  0  0  0  0  0  0
    7.6161    8.3962   24.6596 C   0  0  0  0  0  0  0  0  0  0  0  0
 36 37  2  0  0  0
 37 35  1  0  0  0
 35  1  1  0  0  0
  1  5  1  0  0  0
  1  2  1  0  0  0
  2  9  1  0  0  0
  2  3  2  0  0  0
  3  4  1  0  0  0
  3  6  1  0  0  0
  4  5  2  0  0  0
  4 10  1  0  0  0
 10 11  2  0  0  0
 10 12  1  0  0  0
 12 17  1  0  0  0
 12 13  1  0  0  0
 13 14  1  0  0  0
 14 15  1  0  0  0
 15 16  1  0  0  0
 16 17  1  0  0  0
  6  7  1  0  0  0
  7  8  1  0  0  0
  7 18  1  0  0  0
  8  9  1  0  0  0
 21 22  1  0  0  0
 21 18  1  0  0  0
 22 27  1  0  0  0
 22 23  1  0  0  0
 22 33  1  0  0  0
 23 24  1  0  0  0
 24 25  1  0  0  0
 25 26  1  0  0  0
 26 27  1  0  0  0
 28 29  1  0  0  0
 28 33  1  0  0  0
 29 30  1  0  0  0
 30 31  1  0  0  0
 31 32  1  0  0  0
 32 33  1  0  0  0
 18 19  1  0  0  0
 18 20  1  0  0  0
 33 34  1  0  0  0
M  CHG 1  18   1
M  CHG 1  33   1
M  END
> <minimizedAffinity>
-7.68522

$$$$
ZINC14733558


 37 41  0  0  0  0  0  0  0  0999 V2000
    6.6578    6.4179   14.3123 N   0  0  0  0  0  0  0  0  0  0  0  0
    6.2859    5.1273   14.3227 C   0  0  0  0  0  0  0  0  0  0  0  0
    5.4783    4.9511   15.3975 C   0  0  0  0  0  0  0  0  0  0  0  0
    5.3851    6.2069   16.0203 C   0  0  0  0  0  0  0  0  0  0  0  0
    6.1264    7.0386   15.3085 N   0  0  0  0  0  0  0  0  0  0  0  0
    4.8287    3.6479   15.7734 C   0  0  0  0  0  0  0  0  0  0  0  0
    4.9043    2.7042   14.5654 C   0  0  0  0  0  0  0  0  0  0  0  0
    6.3363    2.6803   14.0240 C   0  0  0  0  0  0  0  0  0  0  0  0
    6.6605    4.0266   13.3639 C   0  0  0  0  0  0  0  0  0  0  0  0
    4.6141    6.5331   17.2372 C   0  0  0  0  0  0  0  0  0  0  0  0
    5.1489    6.4817   18.3277 O   0  0  0  0  0  0  0  0  0  0  0  0
    3.3175    6.8877   17.1386 N   0  0  0  0  0  0  0  0  0  0  0  0
    2.7249    7.1010   15.8173 C   0  0  0  0  0  0  0  0  0  0  0  0
    1.6526    6.0281   15.5648 C   0  0  0  0  0  0  0  0  0  0  0  0
    0.4178    6.1168   16.8964 S   0  0  0  0  0  0  0  0  0  0  0  0
    1.4259    5.9890   18.4042 C   0  0  0  0  0  0  0  0  0  0  0  0
    2.5208    7.0607   18.3542 C   0  0  0  0  0  0  0  0  0  0  0  0
    4.5149    1.3454   14.9874 N   0  0  0  0  0  0  0  0  0  0  0  0
    3.6229    1.0905   14.5400 H   0  0  0  0  0  0  0  0  0  0  0  0
    4.3964    1.3264   16.0105 H   0  0  0  0  0  0  0  0  0  0  0  0
    5.5518    0.3714   14.5980 C   0  0  0  0  0  0  0  0  0  0  0  0
    5.9117   -0.4895   15.8107 C   0  0  0  0  0  0  0  0  0  0  0  0
    6.5268   -1.8074   15.3359 C   0  0  0  0  0  0  0  0  0  0  0  0
    5.5186   -2.5550   14.4611 C   0  0  0  0  0  0  0  0  0  0  0  0
    4.2550   -2.8454   15.2733 C   0  0  0  0  0  0  0  0  0  0  0  0
    3.6398   -1.5274   15.7480 C   0  0  0  0  0  0  0  0  0  0  0  0
    4.6481   -0.7798   16.6230 C   0  0  0  0  0  0  0  0  0  0  0  0
    8.0921   -0.6315   16.8527 C   0  0  0  0  0  0  0  0  0  0  0  0
    9.1347    0.1591   17.6464 C   0  0  0  0  0  0  0  0  0  0  0  0
    8.5540    0.5311   19.0136 C   0  0  0  0  0  0  0  0  0  0  0  0
    7.2682    1.3374   18.8109 C   0  0  0  0  0  0  0  0  0  0  0  0
    6.2797    0.5125   17.9834 C   0  0  0  0  0  0  0  0  0  0  0  0
    6.8890    0.2085   16.6713 N   0  0  0  0  0  0  0  0  0  0  0  0
    7.1641    1.0918   16.2187 H   0  0  0  0  0  0  0  0  0  0  0  0
    7.5388    7.0300   13.3146 C   0  0  0  0  0  0  0  0  0  0  0  0
    9.7930    6.6535   14.1735 C   0  0  0  0  0  0  0  0  0  0  0  0
    8.8073    7.4948   13.9824 C   0  0  0  0  0  0  0  0  0  0  0  0
 36 37  2  0  0  0
 37 35  1  0  0  0
 35  1  1  0  0  0
  1  5  1  0  0  0
  1  2  1  0  0  0
  2  9  1  0  0  0
  2  3  2  0  0  0
  3  4  1  0  0  0
  3  6  1  0  0  0
  4  5  2  0  0  0
  4 10  1  0  0  0
 10 11  2  0  0  0
 10 12  1  0  0  0
 12 17  1  0  0  0
 12 13  1  0  0  0
 13 14  1  0  0  0
 14 15  1  0  0  0
 15 16  1  0  0  0
 16 17  1  0  0  0
  6  7  1  0  0  0
  7  8  1  0  0  0
  7 18  1  0  0  0
  8  9  1  0  0  0
 21 22  1  0  0  0
 21 18  1  0  0  0
 22 27  1  0  0  0
 22 23  1  0  0  0
 22 33  1  0  0  0
 23 24  1  0  0  0
 24 25  1  0  0  0
 25 26  1  0  0  0
 26 27  1  0  0  0
 28 29  1  0  0  0
 28 33  1  0  0  0
 29 30  1  0  0  0
 30 31  1  0  0  0
 31 32  1  0  0  0
 32 33  1  0  0  0
 18 19  1  0  0  0
 18 20  1  0  0  0
 33 34  1  0  0  0
M  CHG 1  18   1
M  CHG 1  33   1
M  END
> <minimizedAffinity>
-7.39010

$$$$
ZINC14733558


 37 41  0  0  0  0  0  0  0  0999 V2000
    8.3195   -0.7835   16.8668 N   0  0  0  0  0  0  0  0  0  0  0  0
    7.8693    0.0186   17.8455 C   0  0  0  0  0  0  0  0  0  0  0  0
    6.5395    0.1901   17.6439 C   0  0  0  0  0  0  0  0  0  0  0  0
    6.2231   -0.5582   16.4977 C   0  0  0  0  0  0  0  0  0  0  0  0
    7.3498   -1.1136   16.0853 N   0  0  0  0  0  0  0  0  0  0  0  0
    5.6409    1.0129   18.5254 C   0  0  0  0  0  0  0  0  0  0  0  0
    6.3710    1.2743   19.8499 C   0  0  0  0  0  0  0  0  0  0  0  0
    7.7848    1.7866   19.5621 C   0  0  0  0  0  0  0  0  0  0  0  0
    8.6357    0.6515   18.9784 C   0  0  0  0  0  0  0  0  0  0  0  0
    4.8921   -0.6931   15.8717 C   0  0  0  0  0  0  0  0  0  0  0  0
    4.1913   -1.6511   16.1339 O   0  0  0  0  0  0  0  0  0  0  0  0
    4.4546    0.2462   15.0098 N   0  0  0  0  0  0  0  0  0  0  0  0
    5.2319    1.4720   14.8205 C   0  0  0  0  0  0  0  0  0  0  0  0
    5.7770    1.5083   13.3830 C   0  0  0  0  0  0  0  0  0  0  0  0
    4.3771    1.3947   12.2284 S   0  0  0  0  0  0  0  0  0  0  0  0
    3.5053   -0.1020   12.7815 C   0  0  0  0  0  0  0  0  0  0  0  0
    3.2049    0.0307   14.2788 C   0  0  0  0  0  0  0  0  0  0  0  0
    5.6272    2.2885   20.6207 N   0  0  0  0  0  0  0  0  0  0  0  0
    5.0093    2.8151   19.9868 H   0  0  0  0  0  0  0  0  0  0  0  0
    6.2934    2.9398   21.0601 H   0  0  0  0  0  0  0  0  0  0  0  0
    4.8145    1.6416   21.6679 C   0  0  0  0  0  0  0  0  0  0  0  0
    3.3321    1.8645   21.3614 C   0  0  0  0  0  0  0  0  0  0  0  0
    3.0310    3.3646   21.3630 C   0  0  0  0  0  0  0  0  0  0  0  0
    3.3611    3.9495   22.7376 C   0  0  0  0  0  0  0  0  0  0  0  0
    2.5101    3.2574   23.8042 C   0  0  0  0  0  0  0  0  0  0  0  0
    2.8113    1.7573   23.8026 C   0  0  0  0  0  0  0  0  0  0  0  0
    2.4811    1.1723   22.4279 C   0  0  0  0  0  0  0  0  0  0  0  0
    2.0927    2.2446   19.3169 C   0  0  0  0  0  0  0  0  0  0  0  0
    1.8464    1.7082   17.9049 C   0  0  0  0  0  0  0  0  0  0  0  0
    1.1882    0.3286   17.9958 C   0  0  0  0  0  0  0  0  0  0  0  0
    2.0907   -0.6065   18.8055 C   0  0  0  0  0  0  0  0  0  0  0  0
    2.3299   -0.0029   20.1914 C   0  0  0  0  0  0  0  0  0  0  0  0
    2.9873    1.3119   20.0352 N   0  0  0  0  0  0  0  0  0  0  0  0
    3.8511    1.1899   19.4875 H   0  0  0  0  0  0  0  0  0  0  0  0
    9.7095   -1.2189   16.7107 C   0  0  0  0  0  0  0  0  0  0  0  0
   10.7922   -3.3663   16.2892 C   0  0  0  0  0  0  0  0  0  0  0  0
    9.7384   -2.6062   16.1225 C   0  0  0  0  0  0  0  0  0  0  0  0
 36 37  2  0  0  0
 37 35  1  0  0  0
 35  1  1  0  0  0
  1  5  1  0  0  0
  1  2  1  0  0  0
  2  9  1  0  0  0
  2  3  2  0  0  0
  3  4  1  0  0  0
  3  6  1  0  0  0
  4  5  2  0  0  0
  4 10  1  0  0  0
 10 11  2  0  0  0
 10 12  1  0  0  0
 12 17  1  0  0  0
 12 13  1  0  0  0
 13 14  1  0  0  0
 14 15  1  0  0  0
 15 16  1  0  0  0
 16 17  1  0  0  0
  6  7  1  0  0  0
  7  8  1  0  0  0
  7 18  1  0  0  0
  8  9  1  0  0  0
 21 22  1  0  0  0
 21 18  1  0  0  0
 22 27  1  0  0  0
 22 23  1  0  0  0
 22 33  1  0  0  0
 23 24  1  0  0  0
 24 25  1  0  0  0
 25 26  1  0  0  0
 26 27  1  0  0  0
 28 29  1  0  0  0
 28 33  1  0  0  0
 29 30  1  0  0  0
 30 31  1  0  0  0
 31 32  1  0  0  0
 32 33  1  0  0  0
 18 19  1  0  0  0
 18 20  1  0  0  0
 33 34  1  0  0  0
M  CHG 1  18   1
M  CHG 1  33   1
M  END
> <minimizedAffinity>
-7.33431

$$$$
