BDB17122
 OpenBabel07192215303D

 39 42  0  0  0  0  0  0  0  0999 V2000
    4.8911    4.2860   22.2288 C   0  0  0  0  0  0  0  0  0  0  0  0
    5.3830    3.1388   21.6176 C   0  0  0  0  0  0  0  0  0  0  0  0
    6.6172    3.1659   20.9796 C   0  0  0  0  0  0  0  0  0  0  0  0
    7.3598    4.3399   20.9525 C   0  0  0  0  0  0  0  0  0  0  0  0
    6.8679    5.4868   21.5635 C   0  0  0  0  0  0  0  0  0  0  0  0
    5.6337    5.4602   22.2017 C   0  0  0  0  0  0  0  0  0  0  0  0
    7.7865    6.9370   21.5294 Cl  0  0  0  0  0  0  0  0  0  0  0  0
    4.6243    1.9404   21.6456 N   0  0  0  0  0  0  0  0  0  0  0  0
    3.4642    1.7179   20.8602 C   0  0  0  0  0  0  0  0  0  0  0  0
    3.0317    2.5760   20.0833 O   0  0  0  0  0  0  0  0  0  0  0  0
    4.9348    1.1860   22.2743 H   0  0  0  0  0  0  0  0  0  0  0  0
    2.7593    0.4416   20.9699 C   0  0  0  0  0  0  0  0  0  0  0  0
    2.3694   -0.1330   22.1623 C   0  0  0  0  0  0  0  0  0  0  0  0
    2.3321   -0.4923   19.6590 S   0  0  0  0  0  0  0  0  0  0  0  0
    1.7199   -1.3454   21.9505 C   0  0  0  0  0  0  0  0  0  0  0  0
    1.6176   -1.6891   20.6036 C   0  0  0  0  0  0  0  0  0  0  0  0
    2.6436    0.5486   23.7123 Cl  0  0  0  0  0  0  0  0  0  0  0  0
    1.1746   -2.1993   23.0682 C   0  0  0  0  0  0  0  0  0  0  0  0
    2.1760   -3.1457   23.6195 N   0  0  0  0  0  0  0  0  0  0  0  0
    2.7063   -4.2646   22.8111 C   0  0  0  0  0  0  0  0  0  0  0  0
    2.4043   -3.1523   25.0327 C   0  0  0  0  0  0  0  0  0  0  0  0
    3.3308   -3.6505   27.0091 C   0  0  0  0  0  0  0  0  0  0  0  0
    2.4952   -2.3558   27.1938 C   0  0  0  0  0  0  0  0  0  0  0  0
    3.3359   -3.8114   25.5765 N   0  3  0  0  0  0  0  0  0  0  0  0
    1.5557   -2.3862   25.9738 C   0  0  0  0  0  0  0  0  0  0  0  0
    4.0136   -4.3907   25.0607 H   0  0  0  0  0  0  0  0  0  0  0  0
    7.1366    1.9570   20.3350 C   0  0  0  0  0  0  0  0  0  0  0  0
    6.8788    0.8570   20.8344 O   0  0  0  0  0  0  0  0  0  0  0  0
    7.9217    2.0730   19.1555 N   0  0  0  0  0  0  0  0  0  0  0  0
    8.1036    3.0168   18.7853 H   0  0  0  0  0  0  0  0  0  0  0  0
    8.4717    0.9609   18.4553 C   0  0  0  0  0  0  0  0  0  0  0  0
   10.3104   -0.4077   18.0900 C   0  0  0  0  0  0  0  0  0  0  0  0
    9.6071   -1.1597   17.1569 C   0  0  0  0  0  0  0  0  0  0  0  0
    8.2900   -0.8316   16.8699 C   0  0  0  0  0  0  0  0  0  0  0  0
    7.7170    0.2455   17.5310 C   0  0  0  0  0  0  0  0  0  0  0  0
   10.3617   -2.4837   16.3659 Cl  0  0  0  0  0  0  0  0  0  0  0  0
    9.7326    0.6182   18.7059 N   0  0  0  0  0  0  0  0  0  0  0  0
    3.6477    4.2596   22.8719 O   0  0  0  0  0  0  0  0  0  0  0  0
    3.2749    5.5676   23.3288 C   0  0  0  0  0  0  0  0  0  0  0  0
  1  2  2  0  0  0  0
  1  6  1  0  0  0  0
  1 38  1  0  0  0  0
  2  3  1  0  0  0  0
  2  8  1  0  0  0  0
  3  4  2  0  0  0  0
  3 27  1  0  0  0  0
  4  5  1  0  0  0  0
  5  6  2  0  0  0  0
  5  7  1  0  0  0  0
  8  9  1  0  0  0  0
  8 11  1  0  0  0  0
  9 12  1  0  0  0  0
  9 10  2  0  0  0  0
 12 13  2  0  0  0  0
 13 15  1  0  0  0  0
 13 17  1  0  0  0  0
 14 12  1  0  0  0  0
 14 16  1  0  0  0  0
 15 16  2  0  0  0  0
 15 18  1  0  0  0  0
 18 19  1  0  0  0  0
 19 21  1  0  0  0  0
 19 20  1  0  0  0  0
 21 24  2  0  0  0  0
 23 22  1  0  0  0  0
 24 22  1  0  0  0  0
 24 26  1  0  0  0  0
 25 21  1  0  0  0  0
 25 23  1  0  0  0  0
 27 29  1  0  0  0  0
 27 28  2  0  0  0  0
 29 31  1  0  0  0  0
 29 30  1  0  0  0  0
 32 33  1  0  0  0  0
 33 34  2  0  0  0  0
 33 36  1  0  0  0  0
 34 35  1  0  0  0  0
 35 31  2  0  0  0  0
 37 31  1  0  0  0  0
 37 32  2  0  0  0  0
 38 39  1  0  0  0  0
M  CHG  1  24   1
M  END
>  <minimizedAffinity>
-8.98475

$$$$
