BDB17122


 39 42  0  0  0  0  0  0  0  0999 V2000
    4.8911    4.2860   22.2288 C   0  0  0  0  0  0  0  0  0  0  0  0
    5.3830    3.1388   21.6176 C   0  0  0  0  0  0  0  0  0  0  0  0
    6.6172    3.1659   20.9796 C   0  0  0  0  0  0  0  0  0  0  0  0
    7.3598    4.3399   20.9525 C   0  0  0  0  0  0  0  0  0  0  0  0
    6.8679    5.4868   21.5635 C   0  0  0  0  0  0  0  0  0  0  0  0
    5.6337    5.4602   22.2017 C   0  0  0  0  0  0  0  0  0  0  0  0
    7.7865    6.9370   21.5294 Cl  0  0  0  0  0  0  0  0  0  0  0  0
    4.6243    1.9404   21.6456 N   0  0  0  0  0  0  0  0  0  0  0  0
    3.4642    1.7179   20.8602 C   0  0  0  0  0  0  0  0  0  0  0  0
    3.0317    2.5760   20.0833 O   0  0  0  0  0  0  0  0  0  0  0  0
    4.9348    1.1860   22.2743 H   0  0  0  0  0  0  0  0  0  0  0  0
    2.7593    0.4416   20.9699 C   0  0  0  0  0  0  0  0  0  0  0  0
    2.3694   -0.1330   22.1623 C   0  0  0  0  0  0  0  0  0  0  0  0
    2.3321   -0.4923   19.6590 S   0  0  0  0  0  0  0  0  0  0  0  0
    1.7199   -1.3454   21.9505 C   0  0  0  0  0  0  0  0  0  0  0  0
    1.6176   -1.6891   20.6036 C   0  0  0  0  0  0  0  0  0  0  0  0
    2.6436    0.5486   23.7123 Cl  0  0  0  0  0  0  0  0  0  0  0  0
    1.1746   -2.1993   23.0682 C   0  0  0  0  0  0  0  0  0  0  0  0
    2.1760   -3.1457   23.6195 N   0  0  0  0  0  0  0  0  0  0  0  0
    2.7063   -4.2646   22.8111 C   0  0  0  0  0  0  0  0  0  0  0  0
    2.4043   -3.1523   25.0327 C   0  0  0  0  0  0  0  0  0  0  0  0
    3.3308   -3.6505   27.0091 C   0  0  0  0  0  0  0  0  0  0  0  0
    2.4952   -2.3558   27.1938 C   0  0  0  0  0  0  0  0  0  0  0  0
    3.3359   -3.8114   25.5765 N   0  0  0  0  0  0  0  0  0  0  0  0
    1.5557   -2.3862   25.9738 C   0  0  0  0  0  0  0  0  0  0  0  0
    4.0136   -4.3907   25.0607 H   0  0  0  0  0  0  0  0  0  0  0  0
    7.1366    1.9570   20.3350 C   0  0  0  0  0  0  0  0  0  0  0  0
    6.8788    0.8570   20.8344 O   0  0  0  0  0  0  0  0  0  0  0  0
    7.9217    2.0730   19.1555 N   0  0  0  0  0  0  0  0  0  0  0  0
    8.1036    3.0168   18.7853 H   0  0  0  0  0  0  0  0  0  0  0  0
    8.4717    0.9609   18.4553 C   0  0  0  0  0  0  0  0  0  0  0  0
   10.3104   -0.4077   18.0900 C   0  0  0  0  0  0  0  0  0  0  0  0
    9.6071   -1.1597   17.1569 C   0  0  0  0  0  0  0  0  0  0  0  0
    8.2900   -0.8316   16.8699 C   0  0  0  0  0  0  0  0  0  0  0  0
    7.7170    0.2455   17.5310 C   0  0  0  0  0  0  0  0  0  0  0  0
   10.3617   -2.4837   16.3659 Cl  0  0  0  0  0  0  0  0  0  0  0  0
    9.7326    0.6182   18.7059 N   0  0  0  0  0  0  0  0  0  0  0  0
    3.6477    4.2596   22.8719 O   0  0  0  0  0  0  0  0  0  0  0  0
    3.2749    5.5676   23.3288 C   0  0  0  0  0  0  0  0  0  0  0  0
  1  2  2  0  0  0
  1  6  1  0  0  0
  1 38  1  0  0  0
  2  3  1  0  0  0
  2  8  1  0  0  0
  3  4  2  0  0  0
  3 27  1  0  0  0
  4  5  1  0  0  0
  5  6  2  0  0  0
  5  7  1  0  0  0
  8  9  1  0  0  0
  8 11  1  0  0  0
  9 12  1  0  0  0
  9 10  2  0  0  0
 12 13  2  0  0  0
 13 15  1  0  0  0
 13 17  1  0  0  0
 14 12  1  0  0  0
 14 16  1  0  0  0
 15 16  2  0  0  0
 15 18  1  0  0  0
 27 29  1  0  0  0
 27 28  2  0  0  0
 29 31  1  0  0  0
 29 30  1  0  0  0
 32 33  1  0  0  0
 33 34  2  0  0  0
 33 36  1  0  0  0
 34 35  1  0  0  0
 35 31  2  0  0  0
 18 19  1  0  0  0
 38 39  1  0  0  0
 37 31  1  0  0  0
 37 32  2  0  0  0
 19 21  1  0  0  0
 19 20  1  0  0  0
 21 24  2  0  0  0
 23 22  1  0  0  0
 24 22  1  0  0  0
 24 26  1  0  0  0
 25 21  1  0  0  0
 25 23  1  0  0  0
M  CHG 1  24   1
M  END
> <minimizedAffinity>
-8.98475

$$$$
BDB17122


 39 42  0  0  0  0  0  0  0  0999 V2000
    5.5099    1.8463   21.6581 C   0  0  0  0  0  0  0  0  0  0  0  0
    5.5250    3.2354   21.6171 C   0  0  0  0  0  0  0  0  0  0  0  0
    6.4377    3.8968   20.8044 C   0  0  0  0  0  0  0  0  0  0  0  0
    7.3354    3.1697   20.0325 C   0  0  0  0  0  0  0  0  0  0  0  0
    7.3202    1.7809   20.0736 C   0  0  0  0  0  0  0  0  0  0  0  0
    6.4077    1.1189   20.8862 C   0  0  0  0  0  0  0  0  0  0  0  0
    8.4301    0.8833   19.1194 Cl  0  0  0  0  0  0  0  0  0  0  0  0
    4.6081    3.9774   22.4054 N   0  0  0  0  0  0  0  0  0  0  0  0
    3.2382    4.1477   22.0786 C   0  0  0  0  0  0  0  0  0  0  0  0
    2.7465    3.6475   21.0613 O   0  0  0  0  0  0  0  0  0  0  0  0
    4.9583    4.4193   23.2673 H   0  0  0  0  0  0  0  0  0  0  0  0
    2.3830    4.9346   22.9659 C   0  0  0  0  0  0  0  0  0  0  0  0
    1.7408    6.0991   22.5979 C   0  0  0  0  0  0  0  0  0  0  0  0
    2.0707    4.5242   24.5493 S   0  0  0  0  0  0  0  0  0  0  0  0
    0.9996    6.6226   23.6529 C   0  0  0  0  0  0  0  0  0  0  0  0
    1.0793    5.8588   24.8161 C   0  0  0  0  0  0  0  0  0  0  0  0
    1.8352    6.8191   21.0438 Cl  0  0  0  0  0  0  0  0  0  0  0  0
    0.1851    7.8878   23.5455 C   0  0  0  0  0  0  0  0  0  0  0  0
    1.0194    9.1133   23.4777 N   0  0  0  0  0  0  0  0  0  0  0  0
    0.8807   10.0800   22.3674 C   0  0  0  0  0  0  0  0  0  0  0  0
    2.1664    9.2068   24.3291 C   0  0  0  0  0  0  0  0  0  0  0  0
    3.4120    9.6571   26.1343 C   0  0  0  0  0  0  0  0  0  0  0  0
    4.1947    8.6374   25.2645 C   0  0  0  0  0  0  0  0  0  0  0  0
    2.1144    9.6647   25.5062 N   0  0  0  0  0  0  0  0  0  0  0  0
    3.5136    8.7766   23.8902 C   0  0  0  0  0  0  0  0  0  0  0  0
    1.2529   10.0010   25.9598 H   0  0  0  0  0  0  0  0  0  0  0  0
    6.4543    5.3613   20.7605 C   0  0  0  0  0  0  0  0  0  0  0  0
    5.3799    5.9706   20.7705 O   0  0  0  0  0  0  0  0  0  0  0  0
    7.6983    6.0474   20.7075 N   0  0  0  0  0  0  0  0  0  0  0  0
    8.5617    5.4857   20.7015 H   0  0  0  0  0  0  0  0  0  0  0  0
    7.8213    7.4659   20.6622 C   0  0  0  0  0  0  0  0  0  0  0  0
    7.8135    9.3913   19.3659 C   0  0  0  0  0  0  0  0  0  0  0  0
    8.0441   10.1845   20.4833 C   0  0  0  0  0  0  0  0  0  0  0  0
    8.1661    9.5875   21.7297 C   0  0  0  0  0  0  0  0  0  0  0  0
    8.0524    8.2074   21.8165 C   0  0  0  0  0  0  0  0  0  0  0  0
    8.1768   11.8888   20.3227 Cl  0  0  0  0  0  0  0  0  0  0  0  0
    7.7096    8.0718   19.4829 N   0  0  0  0  0  0  0  0  0  0  0  0
    4.5906    1.1790   22.4767 O   0  0  0  0  0  0  0  0  0  0  0  0
    3.6492    0.4316   21.6932 C   0  0  0  0  0  0  0  0  0  0  0  0
  1  2  2  0  0  0
  1  6  1  0  0  0
  1 38  1  0  0  0
  2  3  1  0  0  0
  2  8  1  0  0  0
  3  4  2  0  0  0
  3 27  1  0  0  0
  4  5  1  0  0  0
  5  6  2  0  0  0
  5  7  1  0  0  0
  8  9  1  0  0  0
  8 11  1  0  0  0
  9 12  1  0  0  0
  9 10  2  0  0  0
 12 13  2  0  0  0
 13 15  1  0  0  0
 13 17  1  0  0  0
 14 12  1  0  0  0
 14 16  1  0  0  0
 15 16  2  0  0  0
 15 18  1  0  0  0
 27 29  1  0  0  0
 27 28  2  0  0  0
 29 31  1  0  0  0
 29 30  1  0  0  0
 32 33  1  0  0  0
 33 34  2  0  0  0
 33 36  1  0  0  0
 34 35  1  0  0  0
 35 31  2  0  0  0
 18 19  1  0  0  0
 38 39  1  0  0  0
 37 31  1  0  0  0
 37 32  2  0  0  0
 19 21  1  0  0  0
 19 20  1  0  0  0
 21 24  2  0  0  0
 23 22  1  0  0  0
 24 22  1  0  0  0
 24 26  1  0  0  0
 25 21  1  0  0  0
 25 23  1  0  0  0
M  CHG 1  24   1
M  END
> <minimizedAffinity>
-8.94491

$$$$
BDB17122


 39 42  0  0  0  0  0  0  0  0999 V2000
    2.7183    7.2931   24.7475 C   0  0  0  0  0  0  0  0  0  0  0  0
    3.4405    6.5855   23.7938 C   0  0  0  0  0  0  0  0  0  0  0  0
    3.0150    5.3244   23.3944 C   0  0  0  0  0  0  0  0  0  0  0  0
    1.8675    4.7704   23.9482 C   0  0  0  0  0  0  0  0  0  0  0  0
    1.1456    5.4779   24.9017 C   0  0  0  0  0  0  0  0  0  0  0  0
    1.5707    6.7390   25.3015 C   0  0  0  0  0  0  0  0  0  0  0  0
   -0.2722    4.7922   25.5855 Cl  0  0  0  0  0  0  0  0  0  0  0  0
    4.6121    7.1517   23.2286 N   0  0  0  0  0  0  0  0  0  0  0  0
    5.9221    6.9186   23.7205 C   0  0  0  0  0  0  0  0  0  0  0  0
    6.1289    6.1895   24.6964 O   0  0  0  0  0  0  0  0  0  0  0  0
    4.5051    7.7694   22.4115 H   0  0  0  0  0  0  0  0  0  0  0  0
    7.0594    7.5557   23.0581 C   0  0  0  0  0  0  0  0  0  0  0  0
    7.1857    7.6971   21.6914 C   0  0  0  0  0  0  0  0  0  0  0  0
    8.3608    8.1986   23.8742 S   0  0  0  0  0  0  0  0  0  0  0  0
    8.3726    8.3425   21.3577 C   0  0  0  0  0  0  0  0  0  0  0  0
    9.1432    8.6890   22.4662 C   0  0  0  0  0  0  0  0  0  0  0  0
    6.0356    7.1525   20.5411 Cl  0  0  0  0  0  0  0  0  0  0  0  0
    8.7809    8.6432   19.9368 C   0  0  0  0  0  0  0  0  0  0  0  0
    8.0050    9.7537   19.3309 N   0  0  0  0  0  0  0  0  0  0  0  0
    7.8080   11.0349   20.0425 C   0  0  0  0  0  0  0  0  0  0  0  0
    7.1953    9.4750   18.1836 C   0  0  0  0  0  0  0  0  0  0  0  0
    6.5960    8.6821   16.1775 C   0  0  0  0  0  0  0  0  0  0  0  0
    5.2973    9.0157   16.9591 C   0  0  0  0  0  0  0  0  0  0  0  0
    7.6077    8.7999   17.1977 N   0  0  0  0  0  0  0  0  0  0  0  0
    5.8036    9.9655   18.0607 C   0  0  0  0  0  0  0  0  0  0  0  0
    8.5485    8.3859   17.1315 H   0  0  0  0  0  0  0  0  0  0  0  0
    3.7757    4.5778   22.3890 C   0  0  0  0  0  0  0  0  0  0  0  0
    3.3040    4.4549   21.2540 O   0  0  0  0  0  0  0  0  0  0  0  0
    5.0331    4.0133   22.7372 N   0  0  0  0  0  0  0  0  0  0  0  0
    5.3753    4.1487   23.6993 H   0  0  0  0  0  0  0  0  0  0  0  0
    5.8479    3.2716   21.8343 C   0  0  0  0  0  0  0  0  0  0  0  0
    6.4509    1.1921   20.9979 C   0  0  0  0  0  0  0  0  0  0  0  0
    7.3719    1.7701   20.1328 C   0  0  0  0  0  0  0  0  0  0  0  0
    7.5288    3.1485   20.1258 C   0  0  0  0  0  0  0  0  0  0  0  0
    6.7535    3.9074   20.9909 C   0  0  0  0  0  0  0  0  0  0  0  0
    8.3075    0.7867   19.0813 Cl  0  0  0  0  0  0  0  0  0  0  0  0
    5.7235    1.9471   21.8143 N   0  0  0  0  0  0  0  0  0  0  0  0
    3.1463    8.5638   25.1505 O   0  0  0  0  0  0  0  0  0  0  0  0
    2.3048    9.5894   24.6039 C   0  0  0  0  0  0  0  0  0  0  0  0
  1  2  2  0  0  0
  1  6  1  0  0  0
  1 38  1  0  0  0
  2  3  1  0  0  0
  2  8  1  0  0  0
  3  4  2  0  0  0
  3 27  1  0  0  0
  4  5  1  0  0  0
  5  6  2  0  0  0
  5  7  1  0  0  0
  8  9  1  0  0  0
  8 11  1  0  0  0
  9 12  1  0  0  0
  9 10  2  0  0  0
 12 13  2  0  0  0
 13 15  1  0  0  0
 13 17  1  0  0  0
 14 12  1  0  0  0
 14 16  1  0  0  0
 15 16  2  0  0  0
 15 18  1  0  0  0
 27 29  1  0  0  0
 27 28  2  0  0  0
 29 31  1  0  0  0
 29 30  1  0  0  0
 32 33  1  0  0  0
 33 34  2  0  0  0
 33 36  1  0  0  0
 34 35  1  0  0  0
 35 31  2  0  0  0
 18 19  1  0  0  0
 38 39  1  0  0  0
 37 31  1  0  0  0
 37 32  2  0  0  0
 19 21  1  0  0  0
 19 20  1  0  0  0
 21 24  2  0  0  0
 23 22  1  0  0  0
 24 22  1  0  0  0
 24 26  1  0  0  0
 25 21  1  0  0  0
 25 23  1  0  0  0
M  CHG 1  24   1
M  END
> <minimizedAffinity>
-8.59295

$$$$
