ZINC08636149


 40 45  0  0  0  0  0  0  0  0999 V2000
    4.5564    2.7367   19.7564 C   0  0  0  0  0  0  0  0  0  0  0  0
    5.1180    1.9445   18.5676 C   0  0  0  0  0  0  0  0  0  0  0  0
    6.5902    1.7201   18.8049 C   0  0  0  0  0  0  0  0  0  0  0  0
    7.4919    0.7953   18.1551 C   0  0  0  0  0  0  0  0  0  0  0  0
    7.3141   -0.1536   17.1433 C   0  0  0  0  0  0  0  0  0  0  0  0
    8.4207   -0.8723   16.7641 C   0  0  0  0  0  0  0  0  0  0  0  0
    9.6612   -0.6773   17.3489 C   0  0  0  0  0  0  0  0  0  0  0  0
    9.8661    0.2538   18.3522 C   0  0  0  0  0  0  0  0  0  0  0  0
    8.7607    0.9986   18.7580 C   0  0  0  0  0  0  0  0  0  0  0  0
    8.6122    1.9762   19.7002 N   0  0  0  0  0  0  0  0  0  0  0  0
    7.3125    2.4026   19.7236 C   0  0  0  0  0  0  0  0  0  0  0  0
    6.7124    3.4652   20.6106 C   0  0  0  0  0  0  0  0  0  0  0  0
    4.7644    4.8751   20.8909 C   0  0  0  0  0  0  0  0  0  0  0  0
    5.6407    6.1268   20.9874 C   0  0  0  0  0  0  0  0  0  0  0  0
    7.0078    5.7498   21.5637 C   0  0  0  0  0  0  0  0  0  0  0  0
    7.6493    4.6721   20.6841 C   0  0  0  0  0  0  0  0  0  0  0  0
    5.4370    3.9042   20.0026 N   0  0  0  0  0  0  0  0  0  0  0  0
    9.3654    2.3378   20.3024 H   0  0  0  0  0  0  0  0  0  0  0  0
    3.4283    5.2408   20.2975 C   0  0  0  0  0  0  0  0  0  0  0  0
    2.2675    5.0064   21.0112 C   0  0  0  0  0  0  0  0  0  0  0  0
    1.0418    5.3416   20.4675 C   0  0  0  0  0  0  0  0  0  0  0  0
    0.9757    5.9115   19.2098 C   0  0  0  0  0  0  0  0  0  0  0  0
    2.1367    6.1461   18.4953 C   0  0  0  0  0  0  0  0  0  0  0  0
    3.3640    5.8155   19.0425 C   0  0  0  0  0  0  0  0  0  0  0  0
    2.0545    6.8612   16.9155 Cl  0  0  0  0  0  0  0  0  0  0  0  0
    7.8793    6.9398   21.5854 N   0  0  0  0  0  0  0  0  0  0  0  0
    8.8122    6.6735   21.9314 H   0  0  0  0  0  0  0  0  0  0  0  0
    7.9685    7.3162   20.6308 H   0  0  0  0  0  0  0  0  0  0  0  0
    7.3093    7.9759   22.4670 C   0  0  0  0  0  0  0  0  0  0  0  0
    8.2912    9.1451   22.5667 C   0  0  0  0  0  0  0  0  0  0  0  0
    9.2208    8.9225   23.7318 C   0  0  0  0  0  0  0  0  0  0  0  0
    8.9692    8.1551   24.8094 C   0  0  0  0  0  0  0  0  0  0  0  0
   10.0733    8.2298   25.6151 N   0  0  0  0  0  0  0  0  0  0  0  0
   10.9580    9.0480   25.0057 C   0  0  0  0  0  0  0  0  0  0  0  0
   10.4413    9.4585   23.8798 N   0  0  0  0  0  0  0  0  0  0  0  0
   10.2046    7.7512   26.5177 H   0  0  0  0  0  0  0  0  0  0  0  0
    4.4970    1.8460   20.9705 C   0  0  0  0  0  0  0  0  0  0  0  0
    4.5902    0.6478   20.8459 O   0  0  0  0  0  0  0  0  0  0  0  0
    3.2910    1.8284   23.0261 C   0  0  0  0  0  0  0  0  0  0  0  0
    4.3406    2.3837   22.1904 O   0  0  0  0  0  0  0  0  0  0  0  0
 39 40  1  0  0  0
 40 37  1  0  0  0
 37 38  2  0  0  0
 37  1  1  0  0  0
  1  2  1  0  0  0
  1 17  1  0  0  0
  2  3  1  0  0  0
  3 11  2  0  0  0
  3  4  1  0  0  0
  4  9  1  0  0  0
  4  5  2  0  0  0
  5  6  1  0  0  0
  6  7  2  0  0  0
  7  8  1  0  0  0
  8  9  2  0  0  0
  9 10  1  0  0  0
 10 11  1  0  0  0
 10 18  1  0  0  0
 11 12  1  0  0  0
 12 16  1  0  0  0
 12 17  1  0  0  0
 13 14  1  0  0  0
 13 19  1  0  0  0
 13 17  1  0  0  0
 14 15  1  0  0  0
 15 16  1  0  0  0
 15 26  1  0  0  0
 29 30  1  0  0  0
 29 26  1  0  0  0
 30 31  1  0  0  0
 31 35  1  0  0  0
 31 32  2  0  0  0
 32 33  1  0  0  0
 33 34  1  0  0  0
 33 36  1  0  0  0
 34 35  2  0  0  0
 19 24  2  0  0  0
 19 20  1  0  0  0
 20 21  2  0  0  0
 21 22  1  0  0  0
 22 23  2  0  0  0
 23 24  1  0  0  0
 23 25  1  0  0  0
 26 27  1  0  0  0
 26 28  1  0  0  0
M  CHG 1  26   1
M  END
> <minimizedAffinity>
-9.45707

$$$$
ZINC08636149


 40 45  0  0  0  0  0  0  0  0999 V2000
    4.5583    2.7434   19.7429 C   0  0  0  0  0  0  0  0  0  0  0  0
    5.1202    1.9512   18.5541 C   0  0  0  0  0  0  0  0  0  0  0  0
    6.5908    1.7207   18.7951 C   0  0  0  0  0  0  0  0  0  0  0  0
    7.4908    0.7936   18.1461 C   0  0  0  0  0  0  0  0  0  0  0  0
    7.3121   -0.1528   17.1322 C   0  0  0  0  0  0  0  0  0  0  0  0
    8.4169   -0.8751   16.7547 C   0  0  0  0  0  0  0  0  0  0  0  0
    9.6566   -0.6859   17.3432 C   0  0  0  0  0  0  0  0  0  0  0  0
    9.8623    0.2426   18.3488 C   0  0  0  0  0  0  0  0  0  0  0  0
    8.7586    0.9909   18.7528 C   0  0  0  0  0  0  0  0  0  0  0  0
    8.6113    1.9674   19.6964 N   0  0  0  0  0  0  0  0  0  0  0  0
    7.3132    2.3988   19.7170 C   0  0  0  0  0  0  0  0  0  0  0  0
    6.7147    3.4621   20.6042 C   0  0  0  0  0  0  0  0  0  0  0  0
    4.7715    4.8790   20.8818 C   0  0  0  0  0  0  0  0  0  0  0  0
    5.6523    6.1272   20.9829 C   0  0  0  0  0  0  0  0  0  0  0  0
    7.0164    5.7439   21.5622 C   0  0  0  0  0  0  0  0  0  0  0  0
    7.6561    4.6653   20.6825 C   0  0  0  0  0  0  0  0  0  0  0  0
    5.4428    3.9071   19.9935 N   0  0  0  0  0  0  0  0  0  0  0  0
    9.3643    2.3251   20.3013 H   0  0  0  0  0  0  0  0  0  0  0  0
    3.4384    5.2509   20.2853 C   0  0  0  0  0  0  0  0  0  0  0  0
    3.3779    5.8051   19.0200 C   0  0  0  0  0  0  0  0  0  0  0  0
    2.1556    6.1464   18.4723 C   0  0  0  0  0  0  0  0  0  0  0  0
    0.9930    5.9339   19.1893 C   0  0  0  0  0  0  0  0  0  0  0  0
    1.0530    5.3796   20.4552 C   0  0  0  0  0  0  0  0  0  0  0  0
    2.2765    5.0328   21.0008 C   0  0  0  0  0  0  0  0  0  0  0  0
   -0.4066    5.1129   21.3565 Cl  0  0  0  0  0  0  0  0  0  0  0  0
    7.8924    6.9304   21.5885 N   0  0  0  0  0  0  0  0  0  0  0  0
    8.8051    6.6721   21.9898 H   0  0  0  0  0  0  0  0  0  0  0  0
    8.0317    7.2744   20.6277 H   0  0  0  0  0  0  0  0  0  0  0  0
    7.2846    7.9977   22.4054 C   0  0  0  0  0  0  0  0  0  0  0  0
    8.2640    9.1684   22.5099 C   0  0  0  0  0  0  0  0  0  0  0  0
    9.1864    8.9487   23.6812 C   0  0  0  0  0  0  0  0  0  0  0  0
    8.9178    8.2051   24.7713 C   0  0  0  0  0  0  0  0  0  0  0  0
   10.0212    8.2730   25.5786 N   0  0  0  0  0  0  0  0  0  0  0  0
   10.9227    9.0636   24.9574 C   0  0  0  0  0  0  0  0  0  0  0  0
   10.4165    9.4641   23.8231 N   0  0  0  0  0  0  0  0  0  0  0  0
   10.1413    7.8078   26.4897 H   0  0  0  0  0  0  0  0  0  0  0  0
    4.4922    1.8508   20.9552 C   0  0  0  0  0  0  0  0  0  0  0  0
    4.5870    0.6529   20.8293 O   0  0  0  0  0  0  0  0  0  0  0  0
    3.2613    1.8422   22.9960 C   0  0  0  0  0  0  0  0  0  0  0  0
    4.3280    2.3865   22.1750 O   0  0  0  0  0  0  0  0  0  0  0  0
 39 40  1  0  0  0
 40 37  1  0  0  0
 37 38  2  0  0  0
 37  1  1  0  0  0
  1  2  1  0  0  0
  1 17  1  0  0  0
  2  3  1  0  0  0
  3 11  2  0  0  0
  3  4  1  0  0  0
  4  9  1  0  0  0
  4  5  2  0  0  0
  5  6  1  0  0  0
  6  7  2  0  0  0
  7  8  1  0  0  0
  8  9  2  0  0  0
  9 10  1  0  0  0
 10 11  1  0  0  0
 10 18  1  0  0  0
 11 12  1  0  0  0
 12 16  1  0  0  0
 12 17  1  0  0  0
 13 14  1  0  0  0
 13 19  1  0  0  0
 13 17  1  0  0  0
 14 15  1  0  0  0
 15 16  1  0  0  0
 15 26  1  0  0  0
 29 30  1  0  0  0
 29 26  1  0  0  0
 30 31  1  0  0  0
 31 35  1  0  0  0
 31 32  2  0  0  0
 32 33  1  0  0  0
 33 34  1  0  0  0
 33 36  1  0  0  0
 34 35  2  0  0  0
 19 24  2  0  0  0
 19 20  1  0  0  0
 20 21  2  0  0  0
 21 22  1  0  0  0
 22 23  2  0  0  0
 23 24  1  0  0  0
 23 25  1  0  0  0
 26 27  1  0  0  0
 26 28  1  0  0  0
M  CHG 1  26   1
M  END
> <minimizedAffinity>
-9.44278

$$$$
ZINC08636149


 40 45  0  0  0  0  0  0  0  0999 V2000
    3.9605    4.0211   21.4740 C   0  0  0  0  0  0  0  0  0  0  0  0
    4.2420    4.8644   22.7255 C   0  0  0  0  0  0  0  0  0  0  0  0
    5.5177    5.6352   22.4964 C   0  0  0  0  0  0  0  0  0  0  0  0
    6.0438    6.7710   23.2202 C   0  0  0  0  0  0  0  0  0  0  0  0
    5.5731    7.5008   24.3164 C   0  0  0  0  0  0  0  0  0  0  0  0
    6.3537    8.5436   24.7500 C   0  0  0  0  0  0  0  0  0  0  0  0
    7.5533    8.8691   24.1386 C   0  0  0  0  0  0  0  0  0  0  0  0
    8.0430    8.1651   23.0523 C   0  0  0  0  0  0  0  0  0  0  0  0
    7.2719    7.1007   22.5898 C   0  0  0  0  0  0  0  0  0  0  0  0
    7.4528    6.2182   21.5632 N   0  0  0  0  0  0  0  0  0  0  0  0
    6.4005    5.3454   21.5125 C   0  0  0  0  0  0  0  0  0  0  0  0
    6.1953    4.2129   20.5372 C   0  0  0  0  0  0  0  0  0  0  0  0
    4.8906    2.2115   20.1462 C   0  0  0  0  0  0  0  0  0  0  0  0
    6.1601    1.3842   19.9274 C   0  0  0  0  0  0  0  0  0  0  0  0
    7.2679    2.2852   19.3758 C   0  0  0  0  0  0  0  0  0  0  0  0
    7.5057    3.4476   20.3448 C   0  0  0  0  0  0  0  0  0  0  0  0
    5.1969    3.2858   21.1138 N   0  0  0  0  0  0  0  0  0  0  0  0
    8.2601    6.2109   20.9236 H   0  0  0  0  0  0  0  0  0  0  0  0
    3.8082    1.3309   20.7156 C   0  0  0  0  0  0  0  0  0  0  0  0
    2.6172    1.1699   20.0320 C   0  0  0  0  0  0  0  0  0  0  0  0
    1.6241    0.3624   20.5537 C   0  0  0  0  0  0  0  0  0  0  0  0
    1.8211   -0.2848   21.7592 C   0  0  0  0  0  0  0  0  0  0  0  0
    3.0125   -0.1241   22.4435 C   0  0  0  0  0  0  0  0  0  0  0  0
    4.0086    0.6800   21.9180 C   0  0  0  0  0  0  0  0  0  0  0  0
    3.2605   -0.9361   23.9577 Cl  0  0  0  0  0  0  0  0  0  0  0  0
    8.5135    1.5073   19.2371 N   0  0  0  0  0  0  0  0  0  0  0  0
    9.1592    2.0059   18.6084 H   0  0  0  0  0  0  0  0  0  0  0  0
    8.9562    1.4024   20.1611 H   0  0  0  0  0  0  0  0  0  0  0  0
    8.2241    0.1723   18.6804 C   0  0  0  0  0  0  0  0  0  0  0  0
    8.8405    0.0668   17.2841 C   0  0  0  0  0  0  0  0  0  0  0  0
    9.9905   -0.9067   17.3148 C   0  0  0  0  0  0  0  0  0  0  0  0
   11.0717   -0.8294   18.1138 C   0  0  0  0  0  0  0  0  0  0  0  0
   11.8596   -1.9093   17.8196 N   0  0  0  0  0  0  0  0  0  0  0  0
   11.2364   -2.6045   16.8438 C   0  0  0  0  0  0  0  0  0  0  0  0
   10.1192   -1.9989   16.5470 N   0  0  0  0  0  0  0  0  0  0  0  0
   12.7597   -2.1472   18.2601 H   0  0  0  0  0  0  0  0  0  0  0  0
    3.5273    4.9233   20.3474 C   0  0  0  0  0  0  0  0  0  0  0  0
    3.3606    4.4694   19.2400 O   0  0  0  0  0  0  0  0  0  0  0  0
    3.6756    7.1469   19.5026 C   0  0  0  0  0  0  0  0  0  0  0  0
    3.3266    6.2310   20.5739 O   0  0  0  0  0  0  0  0  0  0  0  0
 39 40  1  0  0  0
 40 37  1  0  0  0
 37 38  2  0  0  0
 37  1  1  0  0  0
  1  2  1  0  0  0
  1 17  1  0  0  0
  2  3  1  0  0  0
  3 11  2  0  0  0
  3  4  1  0  0  0
  4  9  1  0  0  0
  4  5  2  0  0  0
  5  6  1  0  0  0
  6  7  2  0  0  0
  7  8  1  0  0  0
  8  9  2  0  0  0
  9 10  1  0  0  0
 10 11  1  0  0  0
 10 18  1  0  0  0
 11 12  1  0  0  0
 12 16  1  0  0  0
 12 17  1  0  0  0
 13 14  1  0  0  0
 13 19  1  0  0  0
 13 17  1  0  0  0
 14 15  1  0  0  0
 15 16  1  0  0  0
 15 26  1  0  0  0
 29 30  1  0  0  0
 29 26  1  0  0  0
 30 31  1  0  0  0
 31 35  1  0  0  0
 31 32  2  0  0  0
 32 33  1  0  0  0
 33 34  1  0  0  0
 33 36  1  0  0  0
 34 35  2  0  0  0
 19 24  2  0  0  0
 19 20  1  0  0  0
 20 21  2  0  0  0
 21 22  1  0  0  0
 22 23  2  0  0  0
 23 24  1  0  0  0
 23 25  1  0  0  0
 26 27  1  0  0  0
 26 28  1  0  0  0
M  CHG 1  26   1
M  END
> <minimizedAffinity>
-9.23938

$$$$
