ZINC31490747


 41 46  0  0  0  0  0  0  0  0999 V2000
    5.4179    0.6929   16.0217 C   0  0  0  0  0  0  0  0  0  0  0  0
    5.8613    1.8405   15.3770 C   0  0  0  0  0  0  0  0  0  0  0  0
    5.8119    1.9209   13.9995 C   0  0  0  0  0  0  0  0  0  0  0  0
    5.3088    0.8604   13.2600 C   0  0  0  0  0  0  0  0  0  0  0  0
    4.8609   -0.2842   13.9032 C   0  0  0  0  0  0  0  0  0  0  0  0
    4.9149   -0.3687   15.2804 C   0  0  0  0  0  0  0  0  0  0  0  0
    5.2553    0.9428   11.9038 O   0  0  0  0  0  0  0  0  0  0  0  0
    6.1855    1.1316   11.6227 H   0  0  0  0  0  0  0  0  0  0  0  0
    5.4726    0.6084   17.4171 N   0  0  0  0  0  0  0  0  0  0  0  0
    4.6679    0.2380   17.9426 H   0  0  0  0  0  0  0  0  0  0  0  0
    9.1773   -1.2931   16.8160 C   0  0  0  0  0  0  0  0  0  0  0  0
   10.3041   -0.8462   17.5147 C   0  0  0  0  0  0  0  0  0  0  0  0
   10.2224    0.1928   18.3861 C   0  0  0  0  0  0  0  0  0  0  0  0
    8.9866    0.8383   18.5972 C   0  0  0  0  0  0  0  0  0  0  0  0
    7.8432    0.3799   17.8913 C   0  0  0  0  0  0  0  0  0  0  0  0
    7.9637   -0.6945   16.9936 C   0  0  0  0  0  0  0  0  0  0  0  0
    6.6043    1.0212   18.0892 C   0  0  0  0  0  0  0  0  0  0  0  0
    6.5589    2.0943   19.0008 C   0  0  0  0  0  0  0  0  0  0  0  0
    5.3567    2.7775   19.2525 C   0  0  0  0  0  0  0  0  0  0  0  0
    5.3412    3.8102   20.1382 C   0  0  0  0  0  0  0  0  0  0  0  0
    6.5047    4.2017   20.8009 C   0  0  0  0  0  0  0  0  0  0  0  0
    7.6855    3.5652   20.5829 C   0  0  0  0  0  0  0  0  0  0  0  0
    7.7454    2.4895   19.6731 C   0  0  0  0  0  0  0  0  0  0  0  0
    8.8965    1.8579   19.4503 N   0  0  0  0  0  0  0  0  0  0  0  0
    9.7414    2.1665   19.9519 H   0  0  0  0  0  0  0  0  0  0  0  0
   10.3911   -3.2270   16.1518 C   0  0  0  0  0  0  0  0  0  0  0  0
    9.2923   -2.3356   15.9509 O   0  0  0  0  0  0  0  0  0  0  0  0
    4.3147   -1.4354   13.0988 C   0  0  0  0  0  0  0  0  0  0  0  0
    5.3740   -1.9766   12.2368 N   0  0  0  0  0  0  0  0  0  0  0  0
    6.5582   -2.3795   13.0379 C   0  0  0  0  0  0  0  0  0  0  0  0
    7.3003   -3.3664   12.1020 C   0  0  0  0  0  0  0  0  0  0  0  0
    6.1433   -4.1281   11.4155 C   0  0  0  0  0  0  0  0  0  0  0  0
    4.9197   -3.2021   11.5445 C   0  0  0  0  0  0  0  0  0  0  0  0
    5.6095   -1.2312   11.5662 H   0  0  0  0  0  0  0  0  0  0  0  0
    6.2991    3.1633   13.2995 C   0  0  0  0  0  0  0  0  0  0  0  0
    5.2910    3.6043   12.3262 N   0  0  0  0  0  0  0  0  0  0  0  0
    4.4125    4.6516   12.9074 C   0  0  0  0  0  0  0  0  0  0  0  0
    3.8113    5.3433   11.6581 C   0  0  0  0  0  0  0  0  0  0  0  0
    4.9940    5.3476   10.6625 C   0  0  0  0  0  0  0  0  0  0  0  0
    5.9298    4.2239   11.1450 C   0  0  0  0  0  0  0  0  0  0  0  0
    4.7541    2.7647   12.0662 H   0  0  0  0  0  0  0  0  0  0  0  0
 26 27  1  0  0  0
 27 11  1  0  0  0
 11 16  1  0  0  0
 11 12  2  0  0  0
 12 13  1  0  0  0
 13 14  2  0  0  0
 14 24  1  0  0  0
 14 15  1  0  0  0
 15 16  2  0  0  0
 15 17  1  0  0  0
 17 18  2  0  0  0
 17  9  1  0  0  0
 18 23  1  0  0  0
 18 19  1  0  0  0
 19 20  2  0  0  0
 20 21  1  0  0  0
 21 22  2  0  0  0
 22 23  1  0  0  0
 23 24  2  0  0  0
 24 25  1  0  0  0
  9  1  1  0  0  0
  9 10  1  0  0  0
  1  6  2  0  0  0
  1  2  1  0  0  0
  2  3  2  0  0  0
  3  4  1  0  0  0
  3 35  1  0  0  0
  4  5  2  0  0  0
  4  7  1  0  0  0
  5  6  1  0  0  0
  5 28  1  0  0  0
 28 29  1  0  0  0
 29 33  1  0  0  0
 29 30  1  0  0  0
 29 34  1  0  0  0
 30 31  1  0  0  0
 31 32  1  0  0  0
 32 33  1  0  0  0
  7  8  1  0  0  0
 35 36  1  0  0  0
 36 40  1  0  0  0
 36 37  1  0  0  0
 36 41  1  0  0  0
 37 38  1  0  0  0
 38 39  1  0  0  0
 39 40  1  0  0  0
M  CHG 1  24   1
M  CHG 1  29   1
M  CHG 1  36   1
M  END
> <minimizedAffinity>
-9.98636

$$$$
ZINC31490747


 41 46  0  0  0  0  0  0  0  0999 V2000
    5.4264    0.6799   16.0104 C   0  0  0  0  0  0  0  0  0  0  0  0
    4.9236   -0.3782   15.2642 C   0  0  0  0  0  0  0  0  0  0  0  0
    4.8613   -0.2838   13.8881 C   0  0  0  0  0  0  0  0  0  0  0  0
    5.3112    0.8629   13.2500 C   0  0  0  0  0  0  0  0  0  0  0  0
    5.8184    1.9182   13.9941 C   0  0  0  0  0  0  0  0  0  0  0  0
    5.8762    1.8279   15.3707 C   0  0  0  0  0  0  0  0  0  0  0  0
    5.2547    0.9527   11.8944 O   0  0  0  0  0  0  0  0  0  0  0  0
    4.3033    0.7986   11.6679 H   0  0  0  0  0  0  0  0  0  0  0  0
    5.4850    0.5873   17.4052 N   0  0  0  0  0  0  0  0  0  0  0  0
    4.6835    0.2097   17.9304 H   0  0  0  0  0  0  0  0  0  0  0  0
    9.1915   -1.3114   16.8061 C   0  0  0  0  0  0  0  0  0  0  0  0
   10.3179   -0.8627   17.5044 C   0  0  0  0  0  0  0  0  0  0  0  0
   10.2352    0.1770   18.3748 C   0  0  0  0  0  0  0  0  0  0  0  0
    8.9988    0.8217   18.5852 C   0  0  0  0  0  0  0  0  0  0  0  0
    7.8558    0.3615   17.8797 C   0  0  0  0  0  0  0  0  0  0  0  0
    7.9773   -0.7137   16.9831 C   0  0  0  0  0  0  0  0  0  0  0  0
    6.6163    1.0018   18.0769 C   0  0  0  0  0  0  0  0  0  0  0  0
    6.5699    2.0758   18.9875 C   0  0  0  0  0  0  0  0  0  0  0  0
    5.3671    2.7582   19.2384 C   0  0  0  0  0  0  0  0  0  0  0  0
    5.3506    3.7917   20.1231 C   0  0  0  0  0  0  0  0  0  0  0  0
    6.5137    4.1850   20.7854 C   0  0  0  0  0  0  0  0  0  0  0  0
    7.6951    3.5493   20.5681 C   0  0  0  0  0  0  0  0  0  0  0  0
    7.7560    2.4728   19.6594 C   0  0  0  0  0  0  0  0  0  0  0  0
    8.9077    1.8420   19.4372 N   0  0  0  0  0  0  0  0  0  0  0  0
    9.7523    2.1519   19.9386 H   0  0  0  0  0  0  0  0  0  0  0  0
   10.4082   -3.2437   16.1427 C   0  0  0  0  0  0  0  0  0  0  0  0
    9.3075   -2.3546   15.9421 O   0  0  0  0  0  0  0  0  0  0  0  0
    6.3068    3.1632   13.2997 C   0  0  0  0  0  0  0  0  0  0  0  0
    5.3004    3.6078   12.3262 N   0  0  0  0  0  0  0  0  0  0  0  0
    4.4634    4.6993   12.8868 C   0  0  0  0  0  0  0  0  0  0  0  0
    3.8681    5.3733   11.6250 C   0  0  0  0  0  0  0  0  0  0  0  0
    5.0371    5.3104   10.6153 C   0  0  0  0  0  0  0  0  0  0  0  0
    5.9431    4.1717   11.1194 C   0  0  0  0  0  0  0  0  0  0  0  0
    4.7336    2.7786   12.0979 H   0  0  0  0  0  0  0  0  0  0  0  0
    4.3097   -1.4290   13.0787 C   0  0  0  0  0  0  0  0  0  0  0  0
    5.3718   -1.9852   12.2298 N   0  0  0  0  0  0  0  0  0  0  0  0
    6.5545   -2.3710   13.0414 C   0  0  0  0  0  0  0  0  0  0  0  0
    7.3003   -3.3745   12.1263 C   0  0  0  0  0  0  0  0  0  0  0  0
    6.1461   -4.1508   11.4516 C   0  0  0  0  0  0  0  0  0  0  0  0
    4.9210   -3.2242   11.5599 C   0  0  0  0  0  0  0  0  0  0  0  0
    5.6079   -1.2524   11.5456 H   0  0  0  0  0  0  0  0  0  0  0  0
 26 27  1  0  0  0
 27 11  1  0  0  0
 11 16  1  0  0  0
 11 12  2  0  0  0
 12 13  1  0  0  0
 13 14  2  0  0  0
 14 24  1  0  0  0
 14 15  1  0  0  0
 15 16  2  0  0  0
 15 17  1  0  0  0
 17 18  2  0  0  0
 17  9  1  0  0  0
 18 23  1  0  0  0
 18 19  1  0  0  0
 19 20  2  0  0  0
 20 21  1  0  0  0
 21 22  2  0  0  0
 22 23  1  0  0  0
 23 24  2  0  0  0
 24 25  1  0  0  0
  9  1  1  0  0  0
  9 10  1  0  0  0
  1  6  2  0  0  0
  1  2  1  0  0  0
  2  3  2  0  0  0
  3  4  1  0  0  0
  3 35  1  0  0  0
  4  5  2  0  0  0
  4  7  1  0  0  0
  5  6  1  0  0  0
  5 28  1  0  0  0
 28 29  1  0  0  0
 29 33  1  0  0  0
 29 30  1  0  0  0
 29 34  1  0  0  0
 30 31  1  0  0  0
 31 32  1  0  0  0
 32 33  1  0  0  0
  7  8  1  0  0  0
 35 36  1  0  0  0
 36 40  1  0  0  0
 36 37  1  0  0  0
 36 41  1  0  0  0
 37 38  1  0  0  0
 38 39  1  0  0  0
 39 40  1  0  0  0
M  CHG 1  24   1
M  CHG 1  29   1
M  CHG 1  36   1
M  END
> <minimizedAffinity>
-9.98398

$$$$
ZINC31490747


 41 46  0  0  0  0  0  0  0  0999 V2000
    7.6495    2.1379   19.9031 C   0  0  0  0  0  0  0  0  0  0  0  0
    6.7918    1.2624   20.5566 C   0  0  0  0  0  0  0  0  0  0  0  0
    5.7947    1.7553   21.3748 C   0  0  0  0  0  0  0  0  0  0  0  0
    5.6422    3.1248   21.5351 C   0  0  0  0  0  0  0  0  0  0  0  0
    6.4949    4.0002   20.8787 C   0  0  0  0  0  0  0  0  0  0  0  0
    7.4963    3.5090   20.0647 C   0  0  0  0  0  0  0  0  0  0  0  0
    4.6563    3.6094   22.3365 O   0  0  0  0  0  0  0  0  0  0  0  0
    4.8138    3.1876   23.2182 H   0  0  0  0  0  0  0  0  0  0  0  0
    8.6635    1.6394   19.0782 N   0  0  0  0  0  0  0  0  0  0  0  0
    9.6330    1.9655   19.1993 H   0  0  0  0  0  0  0  0  0  0  0  0
    4.9751    1.7163   17.0555 C   0  0  0  0  0  0  0  0  0  0  0  0
    4.7076    0.7589   16.0708 C   0  0  0  0  0  0  0  0  0  0  0  0
    5.6198   -0.1974   15.7563 C   0  0  0  0  0  0  0  0  0  0  0  0
    6.8596   -0.2346   16.4272 C   0  0  0  0  0  0  0  0  0  0  0  0
    7.1271    0.7343   17.4299 C   0  0  0  0  0  0  0  0  0  0  0  0
    6.1632    1.7128   17.7272 C   0  0  0  0  0  0  0  0  0  0  0  0
    8.3649    0.7111   18.1026 C   0  0  0  0  0  0  0  0  0  0  0  0
    9.2850   -0.2957   17.7494 C   0  0  0  0  0  0  0  0  0  0  0  0
   10.5370   -0.3836   18.3818 C   0  0  0  0  0  0  0  0  0  0  0  0
   11.4064   -1.3662   18.0215 C   0  0  0  0  0  0  0  0  0  0  0  0
   11.0720   -2.2891   17.0303 C   0  0  0  0  0  0  0  0  0  0  0  0
    9.8710   -2.2353   16.3965 C   0  0  0  0  0  0  0  0  0  0  0  0
    8.9406   -1.2329   16.7400 C   0  0  0  0  0  0  0  0  0  0  0  0
    7.7605   -1.1690   16.1260 N   0  0  0  0  0  0  0  0  0  0  0  0
    7.5378   -1.8620   15.3973 H   0  0  0  0  0  0  0  0  0  0  0  0
    4.5175    3.9743   17.6440 C   0  0  0  0  0  0  0  0  0  0  0  0
    4.0410    2.6601   17.3469 O   0  0  0  0  0  0  0  0  0  0  0  0
    6.3281    5.4876   21.0537 C   0  0  0  0  0  0  0  0  0  0  0  0
    6.6980    5.8639   22.4247 N   0  0  0  0  0  0  0  0  0  0  0  0
    7.8046    6.8546   22.4246 C   0  0  0  0  0  0  0  0  0  0  0  0
    7.6971    7.5063   23.8262 C   0  0  0  0  0  0  0  0  0  0  0  0
    6.1701    7.5838   24.0552 C   0  0  0  0  0  0  0  0  0  0  0  0
    5.5683    6.5212   23.1170 C   0  0  0  0  0  0  0  0  0  0  0  0
    6.9737    4.9920   22.8989 H   0  0  0  0  0  0  0  0  0  0  0  0
    4.8683    0.8054   22.0892 C   0  0  0  0  0  0  0  0  0  0  0  0
    3.4819    1.0781   21.6871 N   0  0  0  0  0  0  0  0  0  0  0  0
    3.2171    0.5754   20.3147 C   0  0  0  0  0  0  0  0  0  0  0  0
    1.6727    0.4598   20.2714 C   0  0  0  0  0  0  0  0  0  0  0  0
    1.3228   -0.0324   21.6945 C   0  0  0  0  0  0  0  0  0  0  0  0
    2.5259    0.3713   22.5668 C   0  0  0  0  0  0  0  0  0  0  0  0
    3.3606    2.0994   21.7436 H   0  0  0  0  0  0  0  0  0  0  0  0
 26 27  1  0  0  0
 27 11  1  0  0  0
 11 16  1  0  0  0
 11 12  2  0  0  0
 12 13  1  0  0  0
 13 14  2  0  0  0
 14 24  1  0  0  0
 14 15  1  0  0  0
 15 16  2  0  0  0
 15 17  1  0  0  0
 17 18  2  0  0  0
 17  9  1  0  0  0
 18 23  1  0  0  0
 18 19  1  0  0  0
 19 20  2  0  0  0
 20 21  1  0  0  0
 21 22  2  0  0  0
 22 23  1  0  0  0
 23 24  2  0  0  0
 24 25  1  0  0  0
  9  1  1  0  0  0
  9 10  1  0  0  0
  1  6  2  0  0  0
  1  2  1  0  0  0
  2  3  2  0  0  0
  3  4  1  0  0  0
  3 35  1  0  0  0
  4  5  2  0  0  0
  4  7  1  0  0  0
  5  6  1  0  0  0
  5 28  1  0  0  0
 28 29  1  0  0  0
 29 33  1  0  0  0
 29 30  1  0  0  0
 29 34  1  0  0  0
 30 31  1  0  0  0
 31 32  1  0  0  0
 32 33  1  0  0  0
  7  8  1  0  0  0
 35 36  1  0  0  0
 36 40  1  0  0  0
 36 37  1  0  0  0
 36 41  1  0  0  0
 37 38  1  0  0  0
 38 39  1  0  0  0
 39 40  1  0  0  0
M  CHG 1  24   1
M  CHG 1  29   1
M  CHG 1  36   1
M  END
> <minimizedAffinity>
-9.81603

$$$$
