BDB50243339
 OpenBabel07192215303D

 38 42  0  0  0  0  0  0  0  0999 V2000
    6.5542    8.3730   24.7354 N   0  0  0  0  0  0  0  0  0  0  0  0
    4.5191    8.8956   25.0244 C   0  0  0  0  0  0  0  0  0  0  0  0
    5.7801    9.1826   25.3530 N   0  0  0  0  0  0  0  0  0  0  0  0
    4.5339    7.8388   24.1408 C   0  0  0  0  0  0  0  0  0  0  0  0
    5.8616    7.5298   23.9841 C   0  0  0  0  0  0  0  0  0  0  0  0
    6.3039    6.4774   23.1238 C   0  0  0  0  0  0  0  0  0  0  0  0
    5.3416    5.7128   22.4423 N   0  0  0  0  0  0  0  0  0  0  0  0
    3.8814    5.8862   22.6528 C   0  0  0  0  0  0  0  0  0  0  0  0
    3.4096    7.1674   23.4463 C   0  0  0  0  0  0  0  0  0  0  0  0
    7.5066    6.2252   22.9851 O   0  0  0  0  0  0  0  0  0  0  0  0
    5.7779    4.6751   21.6076 C   0  0  0  0  0  0  0  0  0  0  0  0
    5.8283    3.3721   22.0891 C   0  0  0  0  0  0  0  0  0  0  0  0
    6.2614    2.3424   21.2623 C   0  0  0  0  0  0  0  0  0  0  0  0
    6.6439    2.6160   19.9545 C   0  0  0  0  0  0  0  0  0  0  0  0
    6.5936    3.9187   19.4729 C   0  0  0  0  0  0  0  0  0  0  0  0
    6.1606    4.9483   20.2995 C   0  0  0  0  0  0  0  0  0  0  0  0
    7.7264    0.3080   19.6713 C   0  0  0  0  0  0  0  0  0  0  0  0
    7.1119    1.5033   19.0604 C   0  0  0  0  0  0  0  0  0  0  0  0
    8.5660    1.3290   18.8711 C   0  0  0  0  0  0  0  0  0  0  0  0
    6.1766    1.4304   17.7933 C   0  0  0  0  0  0  0  0  0  0  0  0
    5.0805    0.4050   17.8593 N   0  3  0  0  0  0  0  0  0  0  0  0
    5.3326   -0.2714   18.5940 H   0  0  0  0  0  0  0  0  0  0  0  0
    3.8093    1.0934   18.1590 C   0  0  0  0  0  0  0  0  0  0  0  0
    3.2792    0.6552   19.5434 C   0  0  0  0  0  0  0  0  0  0  0  0
    4.9213   -0.3515   16.5892 C   0  0  0  0  0  0  0  0  0  0  0  0
    6.3046   -0.6252   15.9473 C   0  0  0  0  0  0  0  0  0  0  0  0
    7.9504    8.4088   24.8323 C   0  0  0  0  0  0  0  0  0  0  0  0
    8.5912    7.6987   25.8411 C   0  0  0  0  0  0  0  0  0  0  0  0
    9.9771    7.7316   25.9408 C   0  0  0  0  0  0  0  0  0  0  0  0
   10.7213    8.4742   25.0317 C   0  0  0  0  0  0  0  0  0  0  0  0
   10.0807    9.1841   24.0231 C   0  0  0  0  0  0  0  0  0  0  0  0
    8.6951    9.1514   23.9235 C   0  0  0  0  0  0  0  0  0  0  0  0
   12.1166    8.5074   25.1317 O   0  0  0  0  0  0  0  0  0  0  0  0
   12.5723    7.6881   26.2170 C   0  0  0  0  0  0  0  0  0  0  0  0
    3.2993    9.6024   25.5271 C   0  0  0  0  0  0  0  0  0  0  0  0
    3.6702   10.6049   26.4000 F   0  0  0  0  0  0  0  0  0  0  0  0
    2.6110   10.1467   24.4621 F   0  0  0  0  0  0  0  0  0  0  0  0
    2.4851    8.7000   26.1796 F   0  0  0  0  0  0  0  0  0  0  0  0
  1 27  1  0  0  0  0
  1  5  1  0  0  0  0
  2  3  2  0  0  0  0
  2 35  1  0  0  0  0
  3  1  1  0  0  0  0
  4  2  1  0  0  0  0
  4  9  1  0  0  0  0
  4  5  2  0  0  0  0
  5  6  1  0  0  0  0
  6  7  1  0  0  0  0
  6 10  2  0  0  0  0
  7 11  1  0  0  0  0
  7  8  1  0  0  0  0
  8  9  1  0  0  0  0
 11 12  2  0  0  0  0
 12 13  1  0  0  0  0
 13 14  2  0  0  0  0
 14 15  1  0  0  0  0
 14 18  1  0  0  0  0
 15 16  2  0  0  0  0
 16 11  1  0  0  0  0
 17 19  1  0  0  0  0
 18 17  1  0  0  0  0
 18 20  1  0  0  0  0
 19 18  1  0  0  0  0
 20 21  1  0  0  0  0
 21 23  1  0  0  0  0
 21 25  1  0  0  0  0
 21 22  1  0  0  0  0
 23 24  1  0  0  0  0
 25 26  1  0  0  0  0
 27 28  2  0  0  0  0
 28 29  1  0  0  0  0
 29 30  2  0  0  0  0
 30 31  1  0  0  0  0
 30 33  1  0  0  0  0
 31 32  2  0  0  0  0
 32 27  1  0  0  0  0
 33 34  1  0  0  0  0
 35 36  1  0  0  0  0
 35 37  1  0  0  0  0
 35 38  1  0  0  0  0
M  CHG  1  21   1
M  END
>  <minimizedAffinity>
-8.19398

$$$$
