BDB50096105
 OpenBabel07192215303D

 44 47  0  0  0  0  0  0  0  0999 V2000
    5.9497    7.4661   23.7593 C   0  0  0  0  0  0  0  0  0  0  0  0
    6.6487    8.3166   24.5393 N   0  0  0  0  0  0  0  0  0  0  0  0
    5.8541    9.0640   25.1869 N   0  0  0  0  0  0  0  0  0  0  0  0
    4.6030    8.7423   24.8688 C   0  0  0  0  0  0  0  0  0  0  0  0
    4.6028    7.7123   23.9490 C   0  0  0  0  0  0  0  0  0  0  0  0
    8.0974    8.4199   24.6818 C   0  0  0  0  0  0  0  0  0  0  0  0
    8.7695    7.8031   25.7129 C   0  0  0  0  0  0  0  0  0  0  0  0
   10.1394    7.8654   25.8928 C   0  0  0  0  0  0  0  0  0  0  0  0
    8.8532    9.1548   23.7686 C   0  0  0  0  0  0  0  0  0  0  0  0
   10.8862    8.5967   24.9804 C   0  0  0  0  0  0  0  0  0  0  0  0
   10.2357    9.2369   23.9255 C   0  0  0  0  0  0  0  0  0  0  0  0
   10.7527    7.1432   27.0543 C   0  0  0  0  0  0  0  0  0  0  0  0
   10.0640    6.8527   28.0898 N   0  3  0  0  0  0  0  0  0  0  0  0
   12.1199    6.7594   27.0374 N   0  0  0  0  0  0  0  0  0  0  0  0
    9.1188    7.0950   28.1505 H   0  0  0  0  0  0  0  0  0  0  0  0
   10.4921    6.3727   28.8481 H   0  0  0  0  0  0  0  0  0  0  0  0
   12.7087    6.9714   26.2288 H   0  0  0  0  0  0  0  0  0  0  0  0
   12.5159    6.2629   27.8509 H   0  0  0  0  0  0  0  0  0  0  0  0
    6.4328    6.4073   22.8203 C   0  0  0  0  0  0  0  0  0  0  0  0
    5.7530    5.2423   22.6445 N   0  0  0  0  0  0  0  0  0  0  0  0
    7.4563    6.5198   22.1799 O   0  0  0  0  0  0  0  0  0  0  0  0
    4.9113    5.0641   23.1346 H   0  0  0  0  0  0  0  0  0  0  0  0
    6.2822    4.2856   21.7705 C   0  0  0  0  0  0  0  0  0  0  0  0
    7.1022    4.6321   20.7778 N   0  0  0  0  0  0  0  0  0  0  0  0
    5.9544    3.0209   21.9621 N   0  0  0  0  0  0  0  0  0  0  0  0
    7.2383    2.4012   20.0988 C   0  0  0  0  0  0  0  0  0  0  0  0
    7.5935    3.7437   19.9293 C   0  0  0  0  0  0  0  0  0  0  0  0
    6.4333    2.0866   21.1566 C   0  0  0  0  0  0  0  0  0  0  0  0
    6.9042    0.7148   18.2074 C   0  0  0  0  0  0  0  0  0  0  0  0
    7.7337    1.3966   19.1392 C   0  0  0  0  0  0  0  0  0  0  0  0
    7.4960   -0.2157   17.3674 C   0  0  0  0  0  0  0  0  0  0  0  0
    9.0844    1.1255   19.1637 C   0  0  0  0  0  0  0  0  0  0  0  0
    8.8556   -0.4896   17.4100 C   0  0  0  0  0  0  0  0  0  0  0  0
    9.6602    0.1867   18.3108 C   0  0  0  0  0  0  0  0  0  0  0  0
    5.1060    0.9057   17.9667 S   0  0  0  0  0  0  0  0  0  0  0  0
    4.2110    0.6099   19.1536 O   0  0  0  0  0  0  0  0  0  0  0  0
    4.8617    2.3580   17.6132 O   0  0  0  0  0  0  0  0  0  0  0  0
    4.6476   -0.0385   16.6254 N   0  0  0  0  0  0  0  0  0  0  0  0
    4.7639    0.3259   15.7067 H   0  0  0  0  0  0  0  0  0  0  0  0
    4.2803   -0.9532   16.7551 H   0  0  0  0  0  0  0  0  0  0  0  0
    3.3642    9.3897   25.4119 C   0  0  0  0  0  0  0  0  0  0  0  0
    2.6033    8.4420   26.0697 F   0  0  0  0  0  0  0  0  0  0  0  0
    2.6340    9.9291   24.3749 F   0  0  0  0  0  0  0  0  0  0  0  0
    3.7164   10.3892   26.2933 F   0  0  0  0  0  0  0  0  0  0  0  0
  2  1  1  0  0  0  0
  3  2  1  0  0  0  0
  3  4  2  0  0  0  0
  4  5  1  0  0  0  0
  5  1  2  0  0  0  0
  6  2  1  0  0  0  0
  7  6  2  0  0  0  0
  8  7  1  0  0  0  0
  9  6  1  0  0  0  0
 10 11  1  0  0  0  0
 10  8  2  0  0  0  0
 11  9  2  0  0  0  0
 12  8  1  0  0  0  0
 13 12  2  0  0  0  0
 13 15  1  0  0  0  0
 13 16  1  0  0  0  0
 14 12  1  0  0  0  0
 14 17  1  0  0  0  0
 14 18  1  0  0  0  0
 19  1  1  0  0  0  0
 20 19  1  0  0  0  0
 20 22  1  0  0  0  0
 21 19  2  0  0  0  0
 23 20  1  0  0  0  0
 24 23  2  0  0  0  0
 25 23  1  0  0  0  0
 26 28  1  0  0  0  0
 26 27  2  0  0  0  0
 27 24  1  0  0  0  0
 28 25  2  0  0  0  0
 29 30  2  0  0  0  0
 30 26  1  0  0  0  0
 31 29  1  0  0  0  0
 32 30  1  0  0  0  0
 33 34  1  0  0  0  0
 33 31  2  0  0  0  0
 34 32  2  0  0  0  0
 35 29  1  0  0  0  0
 36 35  2  0  0  0  0
 37 35  2  0  0  0  0
 38 35  1  0  0  0  0
 38 39  1  0  0  0  0
 38 40  1  0  0  0  0
 41  4  1  0  0  0  0
 42 41  1  0  0  0  0
 43 41  1  0  0  0  0
 44 41  1  0  0  0  0
M  CHG  1  13   1
M  END
>  <minimizedAffinity>
-13.49357

$$$$
