ZINC00576766


 38 42  0  0  0  0  0  0  0  0999 V2000
    4.9776    7.0440   18.8206 C   0  0  0  0  0  0  0  0  0  0  0  0
    4.5777    5.8544   19.7686 C   0  0  0  0  0  0  0  0  0  0  0  0
    3.5666    5.0303   18.9097 C   0  0  0  0  0  0  0  0  0  0  0  0
    3.8175    3.5099   18.7016 C   0  0  0  0  0  0  0  0  0  0  0  0
    5.3016    3.0701   18.9044 C   0  0  0  0  0  0  0  0  0  0  0  0
    5.6291    3.5595   20.3252 C   0  0  0  0  0  0  0  0  0  0  0  0
    5.8347    5.0742   20.1748 C   0  0  0  0  0  0  0  0  0  0  0  0
    6.5203    5.7540   21.1069 C   0  0  0  0  0  0  0  0  0  0  0  0
    5.4902    6.3466   22.0370 C   0  0  0  0  0  0  0  0  0  0  0  0
    4.1835    6.4796   21.1679 C   0  0  0  0  0  0  0  0  0  0  0  0
    3.8619    7.8822   21.0180 O   0  0  0  0  0  0  0  0  0  0  0  0
    5.9173    7.6133   22.5130 O   0  0  0  0  0  0  0  0  0  0  0  0
    6.7638    2.8577   21.0790 C   0  0  0  0  0  0  0  0  0  0  0  0
    6.7658    1.3511   20.8926 C   0  0  0  0  0  0  0  0  0  0  0  0
    6.8199    1.0520   19.4243 C   0  0  0  0  0  0  0  0  0  0  0  0
    7.8842    0.3959   18.9265 C   0  0  0  0  0  0  0  0  0  0  0  0
    8.0936    0.2473   17.4748 C   0  0  0  0  0  0  0  0  0  0  0  0
    9.0480   -0.3748   17.0269 O   0  0  0  0  0  0  0  0  0  0  0  0
    7.1379    0.9370   16.5905 C   0  0  0  0  0  0  0  0  0  0  0  0
    6.0301    1.5056   17.0864 C   0  0  0  0  0  0  0  0  0  0  0  0
    5.6510    1.5674   18.5712 C   0  0  0  0  0  0  0  0  0  0  0  0
    4.4651    0.6008   18.7766 C   0  0  0  0  0  0  0  0  0  0  0  0
    3.3378    3.1429   17.4070 O   0  0  0  0  0  0  0  0  0  0  0  0
    4.5571    8.3567   21.5281 H   0  0  0  0  0  0  0  0  0  0  0  0
    6.6342    7.4262   23.1511 H   0  0  0  0  0  0  0  0  0  0  0  0
    3.8211    3.6620   16.7424 H   0  0  0  0  0  0  0  0  0  0  0  0
    3.0859    5.8803   22.0550 C   0  0  0  0  0  0  0  0  0  0  0  0
    1.9113    5.7914   21.6983 O   0  0  0  0  0  0  0  0  0  0  0  0
    3.6031    5.3024   23.3940 C   0  0  0  0  0  0  0  0  0  0  0  0
    3.9339    3.9243   23.4021 O   0  0  0  0  0  0  0  0  0  0  0  0
    2.9607    3.1091   23.8659 C   0  0  0  0  0  0  0  0  0  0  0  0
    2.3807    3.2044   24.9416 O   0  0  0  0  0  0  0  0  0  0  0  0
    2.7639    2.0238   22.8819 C   0  0  0  0  0  0  0  0  0  0  0  0
    3.3841    0.7743   23.0334 C   0  0  0  0  0  0  0  0  0  0  0  0
    3.0782   -0.2611   22.1493 C   0  0  0  0  0  0  0  0  0  0  0  0
    2.1658   -0.0459   21.1148 C   0  0  0  0  0  0  0  0  0  0  0  0
    1.5855    1.2117   20.9381 C   0  0  0  0  0  0  0  0  0  0  0  0
    1.8932    2.2528   21.8135 C   0  0  0  0  0  0  0  0  0  0  0  0
  2  1  1  0  0  0
  2  3  1  0  0  0
  2  7  1  0  0  0
  2 10  1  0  0  0
  3  4  1  0  0  0
  4  5  1  0  0  0
  4 23  1  0  0  0
  5  6  1  0  0  0
  5 21  1  0  0  0
  6  7  1  0  0  0
  6 13  1  0  0  0
  7  8  2  0  0  0
  8  9  1  0  0  0
  9 10  1  0  0  0
  9 12  1  0  0  0
 10 11  1  0  0  0
 10 27  1  0  0  0
 27 28  2  0  0  0
 27 29  1  0  0  0
 29 30  1  0  0  0
 30 31  1  0  0  0
 31 32  2  0  0  0
 31 33  1  0  0  0
 33 34  2  0  0  0
 33 38  1  0  0  0
 34 35  1  0  0  0
 35 36  2  0  0  0
 36 37  1  0  0  0
 37 38  2  0  0  0
 11 24  1  0  0  0
 12 25  1  0  0  0
 13 14  1  0  0  0
 14 15  1  0  0  0
 15 16  2  0  0  0
 15 21  1  0  0  0
 16 17  1  0  0  0
 17 18  2  0  0  0
 17 19  1  0  0  0
 19 20  2  0  0  0
 20 21  1  0  0  0
 21 22  1  0  0  0
 23 26  1  0  0  0
M  END
> <minimizedAffinity>
-7.79407

$$$$
ZINC00576766


 38 42  0  0  0  0  0  0  0  0999 V2000
    3.0348    4.9185   16.3851 C   0  0  0  0  0  0  0  0  0  0  0  0
    3.8339    3.6239   16.7840 C   0  0  0  0  0  0  0  0  0  0  0  0
    5.1436    4.1880   17.4208 C   0  0  0  0  0  0  0  0  0  0  0  0
    5.5558    3.7134   18.8431 C   0  0  0  0  0  0  0  0  0  0  0  0
    4.3768    3.1559   19.7011 C   0  0  0  0  0  0  0  0  0  0  0  0
    3.7936    2.0358   18.8231 C   0  0  0  0  0  0  0  0  0  0  0  0
    2.9899    2.7717   17.7406 C   0  0  0  0  0  0  0  0  0  0  0  0
    2.0313    2.1242   17.0603 C   0  0  0  0  0  0  0  0  0  0  0  0
    2.6680    1.6653   15.7714 C   0  0  0  0  0  0  0  0  0  0  0  0
    3.8517    2.6732   15.5190 C   0  0  0  0  0  0  0  0  0  0  0  0
    3.5734    3.4307   14.3182 O   0  0  0  0  0  0  0  0  0  0  0  0
    1.7286    1.7054   14.7086 O   0  0  0  0  0  0  0  0  0  0  0  0
    3.0079    0.9187   19.5183 C   0  0  0  0  0  0  0  0  0  0  0  0
    3.6394    0.4627   20.8213 C   0  0  0  0  0  0  0  0  0  0  0  0
    3.8000    1.6548   21.7166 C   0  0  0  0  0  0  0  0  0  0  0  0
    3.1330    1.6934   22.8848 C   0  0  0  0  0  0  0  0  0  0  0  0
    3.0894    2.9126   23.7124 C   0  0  0  0  0  0  0  0  0  0  0  0
    2.5053    2.9346   24.7879 O   0  0  0  0  0  0  0  0  0  0  0  0
    3.7249    4.1190   23.1541 C   0  0  0  0  0  0  0  0  0  0  0  0
    4.4678    4.0515   22.0404 C   0  0  0  0  0  0  0  0  0  0  0  0
    4.6996    2.7886   21.2018 C   0  0  0  0  0  0  0  0  0  0  0  0
    6.1645    2.3574   21.4274 C   0  0  0  0  0  0  0  0  0  0  0  0
    6.2194    4.7902   19.5072 O   0  0  0  0  0  0  0  0  0  0  0  0
    2.7156    3.0772   13.9896 H   0  0  0  0  0  0  0  0  0  0  0  0
    1.1170    0.9599   14.8703 H   0  0  0  0  0  0  0  0  0  0  0  0
    5.6048    5.5411   19.5634 H   0  0  0  0  0  0  0  0  0  0  0  0
    5.0446    1.7685   15.1886 C   0  0  0  0  0  0  0  0  0  0  0  0
    6.1639    2.2067   14.9244 O   0  0  0  0  0  0  0  0  0  0  0  0
    4.7441    0.2562   15.3194 C   0  0  0  0  0  0  0  0  0  0  0  0
    5.3796   -0.4247   16.3876 O   0  0  0  0  0  0  0  0  0  0  0  0
    6.5839   -0.9582   16.0849 C   0  0  0  0  0  0  0  0  0  0  0  0
    6.8066   -1.8318   15.2544 O   0  0  0  0  0  0  0  0  0  0  0  0
    7.5902   -0.3610   16.9881 C   0  0  0  0  0  0  0  0  0  0  0  0
    7.2179    0.4792   18.0485 C   0  0  0  0  0  0  0  0  0  0  0  0
    8.1855    0.9252   18.9496 C   0  0  0  0  0  0  0  0  0  0  0  0
    9.5178    0.5417   18.7862 C   0  0  0  0  0  0  0  0  0  0  0  0
    9.8931   -0.2563   17.7037 C   0  0  0  0  0  0  0  0  0  0  0  0
    8.9321   -0.6986   16.7950 C   0  0  0  0  0  0  0  0  0  0  0  0
  2  1  1  0  0  0
  2  3  1  0  0  0
  2  7  1  0  0  0
  2 10  1  0  0  0
  3  4  1  0  0  0
  4  5  1  0  0  0
  4 23  1  0  0  0
  5  6  1  0  0  0
  5 21  1  0  0  0
  6  7  1  0  0  0
  6 13  1  0  0  0
  7  8  2  0  0  0
  8  9  1  0  0  0
  9 10  1  0  0  0
  9 12  1  0  0  0
 10 11  1  0  0  0
 10 27  1  0  0  0
 27 28  2  0  0  0
 27 29  1  0  0  0
 29 30  1  0  0  0
 30 31  1  0  0  0
 31 32  2  0  0  0
 31 33  1  0  0  0
 33 34  2  0  0  0
 33 38  1  0  0  0
 34 35  1  0  0  0
 35 36  2  0  0  0
 36 37  1  0  0  0
 37 38  2  0  0  0
 11 24  1  0  0  0
 12 25  1  0  0  0
 13 14  1  0  0  0
 14 15  1  0  0  0
 15 16  2  0  0  0
 15 21  1  0  0  0
 16 17  1  0  0  0
 17 18  2  0  0  0
 17 19  1  0  0  0
 19 20  2  0  0  0
 20 21  1  0  0  0
 21 22  1  0  0  0
 23 26  1  0  0  0
M  END
> <minimizedAffinity>
-7.59496

$$$$
ZINC00576766


 38 42  0  0  0  0  0  0  0  0999 V2000
    4.4865    7.4653   19.9473 C   0  0  0  0  0  0  0  0  0  0  0  0
    4.9376    6.4104   21.0231 C   0  0  0  0  0  0  0  0  0  0  0  0
    3.6370    5.5891   21.2934 C   0  0  0  0  0  0  0  0  0  0  0  0
    3.6817    4.0404   21.1608 C   0  0  0  0  0  0  0  0  0  0  0  0
    4.8418    3.5058   20.2635 C   0  0  0  0  0  0  0  0  0  0  0  0
    6.1012    4.1049   20.9120 C   0  0  0  0  0  0  0  0  0  0  0  0
    6.1008    5.5762   20.4709 C   0  0  0  0  0  0  0  0  0  0  0  0
    7.2381    6.2875   20.5063 C   0  0  0  0  0  0  0  0  0  0  0  0
    7.2169    7.0491   21.8090 C   0  0  0  0  0  0  0  0  0  0  0  0
    5.6911    7.1997   22.1693 C   0  0  0  0  0  0  0  0  0  0  0  0
    5.3370    8.6019   22.1291 O   0  0  0  0  0  0  0  0  0  0  0  0
    7.8324    8.3183   21.6554 O   0  0  0  0  0  0  0  0  0  0  0  0
    7.4365    3.3924   20.6719 C   0  0  0  0  0  0  0  0  0  0  0  0
    7.3288    1.8795   20.7347 C   0  0  0  0  0  0  0  0  0  0  0  0
    6.2885    1.4340   19.7509 C   0  0  0  0  0  0  0  0  0  0  0  0
    6.6528    0.6492   18.7200 C   0  0  0  0  0  0  0  0  0  0  0  0
    5.7270    0.3423   17.6147 C   0  0  0  0  0  0  0  0  0  0  0  0
    6.0531   -0.3949   16.6935 O   0  0  0  0  0  0  0  0  0  0  0  0
    4.4166    1.0157   17.6377 C   0  0  0  0  0  0  0  0  0  0  0  0
    4.0232    1.7169   18.7101 C   0  0  0  0  0  0  0  0  0  0  0  0
    4.8605    1.9545   19.9728 C   0  0  0  0  0  0  0  0  0  0  0  0
    4.2291    1.1105   21.1006 C   0  0  0  0  0  0  0  0  0  0  0  0
    2.4102    3.5873   20.6930 O   0  0  0  0  0  0  0  0  0  0  0  0
    6.1737    9.0674   21.9010 H   0  0  0  0  0  0  0  0  0  0  0  0
    8.7905    8.1383   21.5800 H   0  0  0  0  0  0  0  0  0  0  0  0
    2.2370    3.9983   19.8293 H   0  0  0  0  0  0  0  0  0  0  0  0
    5.6149    6.7801   23.6419 C   0  0  0  0  0  0  0  0  0  0  0  0
    5.3692    5.6277   23.9977 O   0  0  0  0  0  0  0  0  0  0  0  0
    5.9770    7.9074   24.6382 C   0  0  0  0  0  0  0  0  0  0  0  0
    7.1678    7.7318   25.3863 O   0  0  0  0  0  0  0  0  0  0  0  0
    8.2030    8.5088   24.9973 C   0  0  0  0  0  0  0  0  0  0  0  0
    8.1835    9.3636   24.1190 O   0  0  0  0  0  0  0  0  0  0  0  0
    9.3984    8.0974   25.7634 C   0  0  0  0  0  0  0  0  0  0  0  0
    9.3127    7.1778   26.8196 C   0  0  0  0  0  0  0  0  0  0  0  0
   10.4785    6.7245   27.4381 C   0  0  0  0  0  0  0  0  0  0  0  0
   11.7212    7.1949   27.0100 C   0  0  0  0  0  0  0  0  0  0  0  0
   11.8011    8.1451   25.9900 C   0  0  0  0  0  0  0  0  0  0  0  0
   10.6391    8.6081   25.3733 C   0  0  0  0  0  0  0  0  0  0  0  0
  2  1  1  0  0  0
  2  3  1  0  0  0
  2  7  1  0  0  0
  2 10  1  0  0  0
  3  4  1  0  0  0
  4  5  1  0  0  0
  4 23  1  0  0  0
  5  6  1  0  0  0
  5 21  1  0  0  0
  6  7  1  0  0  0
  6 13  1  0  0  0
  7  8  2  0  0  0
  8  9  1  0  0  0
  9 10  1  0  0  0
  9 12  1  0  0  0
 10 11  1  0  0  0
 10 27  1  0  0  0
 27 28  2  0  0  0
 27 29  1  0  0  0
 29 30  1  0  0  0
 30 31  1  0  0  0
 31 32  2  0  0  0
 31 33  1  0  0  0
 33 34  2  0  0  0
 33 38  1  0  0  0
 34 35  1  0  0  0
 35 36  2  0  0  0
 36 37  1  0  0  0
 37 38  2  0  0  0
 11 24  1  0  0  0
 12 25  1  0  0  0
 13 14  1  0  0  0
 14 15  1  0  0  0
 15 16  2  0  0  0
 15 21  1  0  0  0
 16 17  1  0  0  0
 17 18  2  0  0  0
 17 19  1  0  0  0
 19 20  2  0  0  0
 20 21  1  0  0  0
 21 22  1  0  0  0
 23 26  1  0  0  0
M  END
> <minimizedAffinity>
-7.17685

$$$$
