ZINC01033024


 32 35  0  0  0  0  0  0  0  0999 V2000
    8.3457    0.7293   18.9677 C   0  0  0  0  0  0  0  0  0  0  0  0
    7.5036    1.5398   19.9188 C   0  0  0  0  0  0  0  0  0  0  0  0
    6.6496    0.8974   20.8025 C   0  0  0  0  0  0  0  0  0  0  0  0
    5.8730    1.6270   21.6786 C   0  0  0  0  0  0  0  0  0  0  0  0
    5.9438    3.0141   21.6812 C   0  0  0  0  0  0  0  0  0  0  0  0
    6.8072    3.6676   20.7892 C   0  0  0  0  0  0  0  0  0  0  0  0
    7.5867    2.9146   19.9079 C   0  0  0  0  0  0  0  0  0  0  0  0
    6.8959    5.1400   20.7859 C   0  0  0  0  0  0  0  0  0  0  0  0
    6.2798    5.7833   19.9583 O   0  0  0  0  0  0  0  0  0  0  0  0
    7.6582    5.7713   21.7001 N   0  0  0  0  0  0  0  0  0  0  0  0
    8.0939    5.2633   22.4017 H   0  0  0  0  0  0  0  0  0  0  0  0
    7.8213    7.1599   21.6369 C   0  0  0  0  0  0  0  0  0  0  0  0
    7.3231    7.9651   22.6521 C   0  0  0  0  0  0  0  0  0  0  0  0
    7.4900    9.3344   22.5909 C   0  0  0  0  0  0  0  0  0  0  0  0
    8.1442    9.9063   21.5114 C   0  0  0  0  0  0  0  0  0  0  0  0
    8.6379    9.1048   20.4959 C   0  0  0  0  0  0  0  0  0  0  0  0
    8.4780    7.7340   20.5568 C   0  0  0  0  0  0  0  0  0  0  0  0
    8.3021   11.2459   21.4505 F   0  0  0  0  0  0  0  0  0  0  0  0
    5.1616    3.7529   22.5654 N   0  0  0  0  0  0  0  0  0  0  0  0
    3.8907    4.0636   22.2413 C   0  0  0  0  0  0  0  0  0  0  0  0
    3.3949    3.6188   21.2233 O   0  0  0  0  0  0  0  0  0  0  0  0
    5.5315    4.0434   23.4134 H   0  0  0  0  0  0  0  0  0  0  0  0
    3.1037    4.9391   23.1181 C   0  0  0  0  0  0  0  0  0  0  0  0
    3.1033    6.2992   23.1803 C   0  0  0  0  0  0  0  0  0  0  0  0
    2.2644    6.9590   24.0983 C   0  0  0  0  0  0  0  0  0  0  0  0
    2.1196    8.3542   24.3088 C   0  0  0  0  0  0  0  0  0  0  0  0
    1.2613    8.8293   25.2483 C   0  0  0  0  0  0  0  0  0  0  0  0
    0.4959    7.9752   26.0339 C   0  0  0  0  0  0  0  0  0  0  0  0
    0.6050    6.6113   25.8605 C   0  0  0  0  0  0  0  0  0  0  0  0
    1.4728    6.1145   24.9111 C   0  0  0  0  0  0  0  0  0  0  0  0
    1.9169    4.4827   24.3706 S   0  0  0  0  0  0  0  0  0  0  0  0
    4.1333    7.2182   22.1275 Cl  0  0  0  0  0  0  0  0  0  0  0  0
  1  2  1  0  0  0
  2  3  2  0  0  0
  2  7  1  0  0  0
  3  4  1  0  0  0
  4  5  2  0  0  0
  5  6  1  0  0  0
  5 19  1  0  0  0
  6  7  2  0  0  0
  6  8  1  0  0  0
  8  9  2  0  0  0
  8 10  1  0  0  0
 10 12  1  0  0  0
 10 11  1  0  0  0
 12 13  2  0  0  0
 12 17  1  0  0  0
 13 14  1  0  0  0
 14 15  2  0  0  0
 15 16  1  0  0  0
 15 18  1  0  0  0
 16 17  2  0  0  0
 19 20  1  0  0  0
 19 22  1  0  0  0
 20 21  2  0  0  0
 20 23  1  0  0  0
 23 24  2  0  0  0
 23 31  1  0  0  0
 24 25  1  0  0  0
 24 32  1  0  0  0
 25 26  2  0  0  0
 25 30  1  0  0  0
 26 27  1  0  0  0
 27 28  2  0  0  0
 28 29  1  0  0  0
 29 30  2  0  0  0
 30 31  1  0  0  0
M  END
> <minimizedAffinity>
-9.29363

$$$$
ZINC01033024


 32 35  0  0  0  0  0  0  0  0999 V2000
    6.5938    6.8111   21.3866 C   0  0  0  0  0  0  0  0  0  0  0  0
    6.1185    5.3970   21.5987 C   0  0  0  0  0  0  0  0  0  0  0  0
    5.0785    5.1441   22.4803 C   0  0  0  0  0  0  0  0  0  0  0  0
    4.6333    3.8544   22.6840 C   0  0  0  0  0  0  0  0  0  0  0  0
    5.2259    2.7985   22.0035 C   0  0  0  0  0  0  0  0  0  0  0  0
    6.2778    3.0505   21.1101 C   0  0  0  0  0  0  0  0  0  0  0  0
    6.7174    4.3620   20.9151 C   0  0  0  0  0  0  0  0  0  0  0  0
    6.9116    1.9386   20.3768 C   0  0  0  0  0  0  0  0  0  0  0  0
    7.0416    0.8545   20.9120 O   0  0  0  0  0  0  0  0  0  0  0  0
    7.3452    2.1239   19.1147 N   0  0  0  0  0  0  0  0  0  0  0  0
    7.1799    2.9666   18.6644 H   0  0  0  0  0  0  0  0  0  0  0  0
    8.0343    1.1007   18.4538 C   0  0  0  0  0  0  0  0  0  0  0  0
    9.3638    0.8463   18.7618 C   0  0  0  0  0  0  0  0  0  0  0  0
   10.0403   -0.1674   18.1127 C   0  0  0  0  0  0  0  0  0  0  0  0
    9.3966   -0.9234   17.1460 C   0  0  0  0  0  0  0  0  0  0  0  0
    8.0717   -0.6681   16.8347 C   0  0  0  0  0  0  0  0  0  0  0  0
    7.3901    0.3414   17.4863 C   0  0  0  0  0  0  0  0  0  0  0  0
   10.0611   -1.9110   16.5086 F   0  0  0  0  0  0  0  0  0  0  0  0
    4.7777    1.4958   22.2066 N   0  0  0  0  0  0  0  0  0  0  0  0
    3.5301    1.1476   21.8337 C   0  0  0  0  0  0  0  0  0  0  0  0
    2.8296    1.9405   21.2333 O   0  0  0  0  0  0  0  0  0  0  0  0
    5.3631    0.8400   22.6159 H   0  0  0  0  0  0  0  0  0  0  0  0
    3.0163   -0.1901   22.1520 C   0  0  0  0  0  0  0  0  0  0  0  0
    2.3987   -1.0803   21.3273 C   0  0  0  0  0  0  0  0  0  0  0  0
    1.9780   -2.3263   21.8295 C   0  0  0  0  0  0  0  0  0  0  0  0
    1.3280   -3.3782   21.1347 C   0  0  0  0  0  0  0  0  0  0  0  0
    0.9819   -4.5244   21.7763 C   0  0  0  0  0  0  0  0  0  0  0  0
    1.2493   -4.7118   23.1276 C   0  0  0  0  0  0  0  0  0  0  0  0
    1.8814   -3.7145   23.8404 C   0  0  0  0  0  0  0  0  0  0  0  0
    2.2379   -2.5452   23.2025 C   0  0  0  0  0  0  0  0  0  0  0  0
    3.0404   -1.0475   23.7171 S   0  0  0  0  0  0  0  0  0  0  0  0
    2.1333   -0.6806   19.6589 Cl  0  0  0  0  0  0  0  0  0  0  0  0
  1  2  1  0  0  0
  2  3  2  0  0  0
  2  7  1  0  0  0
  3  4  1  0  0  0
  4  5  2  0  0  0
  5  6  1  0  0  0
  5 19  1  0  0  0
  6  7  2  0  0  0
  6  8  1  0  0  0
  8  9  2  0  0  0
  8 10  1  0  0  0
 10 12  1  0  0  0
 10 11  1  0  0  0
 12 13  2  0  0  0
 12 17  1  0  0  0
 13 14  1  0  0  0
 14 15  2  0  0  0
 15 16  1  0  0  0
 15 18  1  0  0  0
 16 17  2  0  0  0
 19 20  1  0  0  0
 19 22  1  0  0  0
 20 21  2  0  0  0
 20 23  1  0  0  0
 23 24  2  0  0  0
 23 31  1  0  0  0
 24 25  1  0  0  0
 24 32  1  0  0  0
 25 26  2  0  0  0
 25 30  1  0  0  0
 26 27  1  0  0  0
 27 28  2  0  0  0
 28 29  1  0  0  0
 29 30  2  0  0  0
 30 31  1  0  0  0
M  END
> <minimizedAffinity>
-8.72302

$$$$
ZINC01033024


 32 35  0  0  0  0  0  0  0  0999 V2000
    0.6437    5.3575   25.3805 C   0  0  0  0  0  0  0  0  0  0  0  0
    1.7052    4.7667   24.4889 C   0  0  0  0  0  0  0  0  0  0  0  0
    1.7115    3.4036   24.2343 C   0  0  0  0  0  0  0  0  0  0  0  0
    2.6774    2.8495   23.4200 C   0  0  0  0  0  0  0  0  0  0  0  0
    3.6516    3.6573   22.8477 C   0  0  0  0  0  0  0  0  0  0  0  0
    3.6480    5.0369   23.1024 C   0  0  0  0  0  0  0  0  0  0  0  0
    2.6635    5.5827   23.9294 C   0  0  0  0  0  0  0  0  0  0  0  0
    4.6736    5.9064   22.4959 C   0  0  0  0  0  0  0  0  0  0  0  0
    4.4372    6.4890   21.4551 O   0  0  0  0  0  0  0  0  0  0  0  0
    5.8709    6.0558   23.0954 N   0  0  0  0  0  0  0  0  0  0  0  0
    6.0346    5.6468   23.9593 H   0  0  0  0  0  0  0  0  0  0  0  0
    6.8782    6.8008   22.4717 C   0  0  0  0  0  0  0  0  0  0  0  0
    7.3995    7.9252   23.0971 C   0  0  0  0  0  0  0  0  0  0  0  0
    8.3972    8.6557   22.4826 C   0  0  0  0  0  0  0  0  0  0  0  0
    8.8704    8.2740   21.2373 C   0  0  0  0  0  0  0  0  0  0  0  0
    8.3484    7.1551   20.6104 C   0  0  0  0  0  0  0  0  0  0  0  0
    7.3543    6.4185   21.2249 C   0  0  0  0  0  0  0  0  0  0  0  0
    9.8425    8.9924   20.6356 F   0  0  0  0  0  0  0  0  0  0  0  0
    4.6271    3.1004   22.0246 N   0  0  0  0  0  0  0  0  0  0  0  0
    4.3052    2.6919   20.7811 C   0  0  0  0  0  0  0  0  0  0  0  0
    3.1893    2.8966   20.3418 O   0  0  0  0  0  0  0  0  0  0  0  0
    5.5371    3.0069   22.3461 H   0  0  0  0  0  0  0  0  0  0  0  0
    5.3024    1.9998   19.9557 C   0  0  0  0  0  0  0  0  0  0  0  0
    6.6581    2.0035   20.0812 C   0  0  0  0  0  0  0  0  0  0  0  0
    7.4479    1.2646   19.1802 C   0  0  0  0  0  0  0  0  0  0  0  0
    8.8605    1.1402   19.1495 C   0  0  0  0  0  0  0  0  0  0  0  0
    9.4705    0.3845   18.1998 C   0  0  0  0  0  0  0  0  0  0  0  0
    8.7417   -0.2926   17.2288 C   0  0  0  0  0  0  0  0  0  0  0  0
    7.3656   -0.1998   17.2235 C   0  0  0  0  0  0  0  0  0  0  0  0
    6.7326    0.5643   18.1809 C   0  0  0  0  0  0  0  0  0  0  0  0
    5.0368    0.9520   18.5355 S   0  0  0  0  0  0  0  0  0  0  0  0
    7.4112    2.9155   21.3520 Cl  0  0  0  0  0  0  0  0  0  0  0  0
  1  2  1  0  0  0
  2  3  2  0  0  0
  2  7  1  0  0  0
  3  4  1  0  0  0
  4  5  2  0  0  0
  5  6  1  0  0  0
  5 19  1  0  0  0
  6  7  2  0  0  0
  6  8  1  0  0  0
  8  9  2  0  0  0
  8 10  1  0  0  0
 10 12  1  0  0  0
 10 11  1  0  0  0
 12 13  2  0  0  0
 12 17  1  0  0  0
 13 14  1  0  0  0
 14 15  2  0  0  0
 15 16  1  0  0  0
 15 18  1  0  0  0
 16 17  2  0  0  0
 19 20  1  0  0  0
 19 22  1  0  0  0
 20 21  2  0  0  0
 20 23  1  0  0  0
 23 24  2  0  0  0
 23 31  1  0  0  0
 24 25  1  0  0  0
 24 32  1  0  0  0
 25 26  2  0  0  0
 25 30  1  0  0  0
 26 27  1  0  0  0
 27 28  2  0  0  0
 28 29  1  0  0  0
 29 30  2  0  0  0
 30 31  1  0  0  0
M  END
> <minimizedAffinity>
-8.62777

$$$$
