ZINC00576766
 OpenBabel07192215303D

 38 42  0  0  0  0  0  0  0  0999 V2000
    4.9776    7.0440   18.8206 C   0  0  0  0  0  0  0  0  0  0  0  0
    4.5777    5.8544   19.7686 C   0  0  1  0  0  0  0  0  0  0  0  0
    3.5666    5.0303   18.9097 C   0  0  0  0  0  0  0  0  0  0  0  0
    3.8175    3.5099   18.7016 C   0  0  2  0  0  0  0  0  0  0  0  0
    5.3016    3.0701   18.9044 C   0  0  1  0  0  0  0  0  0  0  0  0
    5.6291    3.5595   20.3252 C   0  0  2  0  0  0  0  0  0  0  0  0
    5.8347    5.0742   20.1748 C   0  0  0  0  0  0  0  0  0  0  0  0
    6.5203    5.7540   21.1069 C   0  0  0  0  0  0  0  0  0  0  0  0
    5.4902    6.3466   22.0370 C   0  0  2  0  0  0  0  0  0  0  0  0
    4.1835    6.4796   21.1679 C   0  0  1  0  0  0  0  0  0  0  0  0
    3.8619    7.8822   21.0180 O   0  0  0  0  0  0  0  0  0  0  0  0
    5.9173    7.6133   22.5130 O   0  0  0  0  0  0  0  0  0  0  0  0
    6.7638    2.8577   21.0790 C   0  0  0  0  0  0  0  0  0  0  0  0
    6.7658    1.3511   20.8926 C   0  0  0  0  0  0  0  0  0  0  0  0
    6.8199    1.0520   19.4243 C   0  0  0  0  0  0  0  0  0  0  0  0
    7.8842    0.3959   18.9265 C   0  0  0  0  0  0  0  0  0  0  0  0
    8.0936    0.2473   17.4748 C   0  0  0  0  0  0  0  0  0  0  0  0
    9.0480   -0.3748   17.0269 O   0  0  0  0  0  0  0  0  0  0  0  0
    7.1379    0.9370   16.5905 C   0  0  0  0  0  0  0  0  0  0  0  0
    6.0301    1.5056   17.0864 C   0  0  0  0  0  0  0  0  0  0  0  0
    5.6510    1.5674   18.5712 C   0  0  2  0  0  0  0  0  0  0  0  0
    4.4651    0.6008   18.7766 C   0  0  0  0  0  0  0  0  0  0  0  0
    3.3378    3.1429   17.4070 O   0  0  0  0  0  0  0  0  0  0  0  0
    4.5571    8.3567   21.5281 H   0  0  0  0  0  0  0  0  0  0  0  0
    6.6342    7.4262   23.1511 H   0  0  0  0  0  0  0  0  0  0  0  0
    3.8211    3.6620   16.7424 H   0  0  0  0  0  0  0  0  0  0  0  0
    3.0859    5.8803   22.0550 C   0  0  0  0  0  0  0  0  0  0  0  0
    1.9113    5.7914   21.6983 O   0  0  0  0  0  0  0  0  0  0  0  0
    3.6031    5.3024   23.3940 C   0  0  0  0  0  0  0  0  0  0  0  0
    3.9339    3.9243   23.4021 O   0  0  0  0  0  0  0  0  0  0  0  0
    2.9607    3.1091   23.8659 C   0  0  0  0  0  0  0  0  0  0  0  0
    2.3807    3.2044   24.9416 O   0  0  0  0  0  0  0  0  0  0  0  0
    2.7639    2.0238   22.8819 C   0  0  0  0  0  0  0  0  0  0  0  0
    3.3841    0.7743   23.0334 C   0  0  0  0  0  0  0  0  0  0  0  0
    3.0782   -0.2611   22.1493 C   0  0  0  0  0  0  0  0  0  0  0  0
    2.1658   -0.0459   21.1148 C   0  0  0  0  0  0  0  0  0  0  0  0
    1.5855    1.2117   20.9381 C   0  0  0  0  0  0  0  0  0  0  0  0
    1.8932    2.2528   21.8135 C   0  0  0  0  0  0  0  0  0  0  0  0
  2  1  1  6  0  0  0
  2  3  1  0  0  0  0
  2  7  1  0  0  0  0
  2 10  1  0  0  0  0
  3  4  1  0  0  0  0
  4  5  1  0  0  0  0
  4 23  1  6  0  0  0
  5  6  1  0  0  0  0
  5 21  1  0  0  0  0
  6  7  1  0  0  0  0
  6 13  1  0  0  0  0
  7  8  2  0  0  0  0
  8  9  1  0  0  0  0
  9 10  1  0  0  0  0
  9 12  1  0  0  0  0
 10 11  1  0  0  0  0
 10 27  1  0  0  0  0
 11 24  1  0  0  0  0
 12 25  1  0  0  0  0
 13 14  1  0  0  0  0
 14 15  1  0  0  0  0
 15 16  2  0  0  0  0
 15 21  1  0  0  0  0
 16 17  1  0  0  0  0
 17 18  2  0  0  0  0
 17 19  1  0  0  0  0
 19 20  2  0  0  0  0
 20 21  1  0  0  0  0
 21 22  1  0  0  0  0
 23 26  1  0  0  0  0
 27 28  2  0  0  0  0
 27 29  1  0  0  0  0
 29 30  1  0  0  0  0
 30 31  1  0  0  0  0
 31 32  2  0  0  0  0
 31 33  1  0  0  0  0
 33 34  2  0  0  0  0
 33 38  1  0  0  0  0
 34 35  1  0  0  0  0
 35 36  2  0  0  0  0
 36 37  1  0  0  0  0
 37 38  2  0  0  0  0
M  END
>  <minimizedAffinity>
-7.79407

$$$$
