ZINC01493808
 OpenBabel07192215303D

 38 41  0  0  0  0  0  0  0  0999 V2000
    5.9377    3.4117   21.8506 C   0  0  0  0  0  0  0  0  0  0  0  0
    6.8973    4.0528   21.0546 C   0  0  0  0  0  0  0  0  0  0  0  0
    7.6418    3.3076   20.1349 C   0  0  0  0  0  0  0  0  0  0  0  0
    7.4236    1.9524   20.0071 C   0  0  0  0  0  0  0  0  0  0  0  0
    6.4706    1.3193   20.7912 C   0  0  0  0  0  0  0  0  0  0  0  0
    5.7284    2.0414   21.7099 C   0  0  0  0  0  0  0  0  0  0  0  0
    8.3454    1.0336   18.8594 Cl  0  0  0  0  0  0  0  0  0  0  0  0
    3.9799    4.6224   22.4326 C   0  0  0  0  0  0  0  0  0  0  0  0
    3.5796    4.5085   21.2879 O   0  0  0  0  0  0  0  0  0  0  0  0
    5.1924    4.1428   22.7742 N   0  0  0  0  0  0  0  0  0  0  0  0
    5.5455    4.3067   23.6625 H   0  0  0  0  0  0  0  0  0  0  0  0
    2.2597    6.9597   24.8334 C   0  0  0  0  0  0  0  0  0  0  0  0
    1.4042    6.0236   25.3193 C   0  0  0  0  0  0  0  0  0  0  0  0
    1.8285    4.5970   24.4305 S   0  0  0  0  0  0  0  0  0  0  0  0
    3.1439    5.2813   23.4370 C   0  0  0  0  0  0  0  0  0  0  0  0
    3.1668    6.6020   23.8657 C   0  0  0  0  0  0  0  0  0  0  0  0
    4.2916    7.7481   23.2083 Cl  0  0  0  0  0  0  0  0  0  0  0  0
    2.2189    8.3732   25.3542 C   0  0  0  0  0  0  0  0  0  0  0  0
   -0.1373    9.1020   25.9513 C   0  0  0  0  0  0  0  0  0  0  0  0
    0.9488    8.9968   24.9739 N   0  0  0  0  0  0  0  0  0  0  0  0
    0.7776    9.4835   23.7016 C   0  0  0  0  0  0  0  0  0  0  0  0
    0.6906   10.7502   23.4325 N   0  0  0  0  0  0  0  0  0  0  0  0
    0.5246   10.9069   21.9746 C   0  0  0  0  0  0  0  0  0  0  0  0
    0.9180    9.5041   21.4512 C   0  0  0  0  0  0  0  0  0  0  0  0
    0.6775    8.6886   22.6163 O   0  0  0  0  0  0  0  0  0  0  0  0
    7.1236    5.5027   21.1899 C   0  0  0  0  0  0  0  0  0  0  0  0
    7.4210    5.9732   22.2708 O   0  0  0  0  0  0  0  0  0  0  0  0
    7.0018    6.3077   20.1162 N   0  0  0  0  0  0  0  0  0  0  0  0
    6.6942    5.9442   19.2709 H   0  0  0  0  0  0  0  0  0  0  0  0
    7.3163    7.6618   20.2196 C   0  0  0  0  0  0  0  0  0  0  0  0
    8.5992    8.0433   20.5954 C   0  0  0  0  0  0  0  0  0  0  0  0
    8.8982    9.3904   20.6940 C   0  0  0  0  0  0  0  0  0  0  0  0
    7.8985   10.3136   20.4128 C   0  0  0  0  0  0  0  0  0  0  0  0
    6.6455    9.8623   20.0447 C   0  0  0  0  0  0  0  0  0  0  0  0
    6.3923    8.5702   19.9541 N   0  0  0  0  0  0  0  0  0  0  0  0
    8.2204   12.0164   20.5221 Cl  0  0  0  0  0  0  0  0  0  0  0  0
    4.7951    1.4132   22.4739 O   0  0  0  0  0  0  0  0  0  0  0  0
    3.7271    0.7597   21.7863 C   0  0  0  0  0  0  0  0  0  0  0  0
  1  2  2  0  0  0  0
  1  6  1  0  0  0  0
  2  3  1  0  0  0  0
  2 26  1  0  0  0  0
  3  4  2  0  0  0  0
  4  5  1  0  0  0  0
  4  7  1  0  0  0  0
  5  6  2  0  0  0  0
  6 37  1  0  0  0  0
  8  9  2  0  0  0  0
  8 10  1  0  0  0  0
 10  1  1  0  0  0  0
 10 11  1  0  0  0  0
 12 13  2  0  0  0  0
 12 16  1  0  0  0  0
 13 14  1  0  0  0  0
 14 15  1  0  0  0  0
 15 16  2  0  0  0  0
 15  8  1  0  0  0  0
 16 17  1  0  0  0  0
 18 12  1  0  0  0  0
 19 20  1  0  0  0  0
 20 18  1  0  0  0  0
 20 21  1  0  0  0  0
 21 22  2  0  0  0  0
 21 25  1  0  0  0  0
 22 23  1  0  0  0  0
 23 24  1  0  0  0  0
 24 25  1  0  0  0  0
 26 27  2  0  0  0  0
 26 28  1  0  0  0  0
 28 30  1  0  0  0  0
 28 29  1  0  0  0  0
 30 31  2  0  0  0  0
 30 35  1  0  0  0  0
 31 32  1  0  0  0  0
 32 33  2  0  0  0  0
 33 34  1  0  0  0  0
 33 36  1  0  0  0  0
 34 35  2  0  0  0  0
 37 38  1  0  0  0  0
M  END
>  <minimizedAffinity>
-9.11662

$$$$
