ZINC01494901


 39 43  0  0  0  0  0  0  0  0999 V2000
    4.1080    4.7430   22.4843 C   0  0  0  0  0  0  0  0  0  0  0  0
    3.5923    4.5623   21.3978 O   0  0  0  0  0  0  0  0  0  0  0  0
    5.2619    4.1181   22.7949 N   0  0  0  0  0  0  0  0  0  0  0  0
    5.6279    4.1938   23.6904 H   0  0  0  0  0  0  0  0  0  0  0  0
    0.7651    6.7998   25.6997 C   0  0  0  0  0  0  0  0  0  0  0  0
    2.0087    6.5625   24.8824 C   0  0  0  0  0  0  0  0  0  0  0  0
    2.2178    5.4908   24.0176 C   0  0  0  0  0  0  0  0  0  0  0  0
    3.4732    5.6405   23.4599 C   0  0  0  0  0  0  0  0  0  0  0  0
    4.0133    6.7814   23.9900 N   0  0  0  0  0  0  0  0  0  0  0  0
    3.0711    7.3295   24.8689 N   0  0  0  0  0  0  0  0  0  0  0  0
    5.2776    7.3087   23.7011 C   0  0  0  0  0  0  0  0  0  0  0  0
    6.2590    7.2924   24.6666 C   0  0  0  0  0  0  0  0  0  0  0  0
    7.5248    7.8274   24.3755 C   0  0  0  0  0  0  0  0  0  0  0  0
    8.5535    7.8244   25.3340 C   0  0  0  0  0  0  0  0  0  0  0  0
    9.7701    8.3446   25.0168 C   0  0  0  0  0  0  0  0  0  0  0  0
   10.0155    8.8768   23.7522 C   0  0  0  0  0  0  0  0  0  0  0  0
    9.0461    8.8922   22.7986 C   0  0  0  0  0  0  0  0  0  0  0  0
    7.7762    8.3644   23.0874 C   0  0  0  0  0  0  0  0  0  0  0  0
    6.7527    8.3647   22.1245 C   0  0  0  0  0  0  0  0  0  0  0  0
    5.5310    7.8466   22.4314 C   0  0  0  0  0  0  0  0  0  0  0  0
    4.5520    7.8505   21.5007 F   0  0  0  0  0  0  0  0  0  0  0  0
    5.9293    3.3617   21.8281 C   0  0  0  0  0  0  0  0  0  0  0  0
    5.7738    1.9807   21.7978 C   0  0  0  0  0  0  0  0  0  0  0  0
    6.4263    1.2329   20.8408 C   0  0  0  0  0  0  0  0  0  0  0  0
    7.2517    1.8628   19.9101 C   0  0  0  0  0  0  0  0  0  0  0  0
    7.4106    3.2470   19.9463 C   0  0  0  0  0  0  0  0  0  0  0  0
    6.7510    3.9908   20.9013 C   0  0  0  0  0  0  0  0  0  0  0  0
    7.9600    1.0594   18.8835 C   0  0  0  0  0  0  0  0  0  0  0  0
    9.2960    0.7068   19.0704 C   0  0  0  0  0  0  0  0  0  0  0  0
    9.9502   -0.0397   18.1117 C   0  0  0  0  0  0  0  0  0  0  0  0
    9.2821   -0.4380   16.9674 C   0  0  0  0  0  0  0  0  0  0  0  0
    7.9570   -0.0916   16.7770 C   0  0  0  0  0  0  0  0  0  0  0  0
    7.2910    0.6502   17.7311 C   0  0  0  0  0  0  0  0  0  0  0  0
    5.6008    1.0842   17.4909 S   0  0  0  0  0  0  0  0  0  0  0  0
    4.8474    0.3095   18.4141 O   0  0  0  0  0  0  0  0  0  0  0  0
    5.5457    2.5033   17.4647 O   0  0  0  0  0  0  0  0  0  0  0  0
    5.1719    0.5654   15.9787 N   0  0  0  0  0  0  0  0  0  0  0  0
    5.8228    0.1154   15.4164 H   0  0  0  0  0  0  0  0  0  0  0  0
    4.2697    0.7114   15.6528 H   0  0  0  0  0  0  0  0  0  0  0  0
  5  6  1  0  0  0
  6  7  1  0  0  0
  6 10  2  0  0  0
  7  8  2  0  0  0
  8  9  1  0  0  0
  8  1  1  0  0  0
  9 10  1  0  0  0
  9 11  1  0  0  0
 11 12  2  0  0  0
 11 20  1  0  0  0
 12 13  1  0  0  0
 13 14  2  0  0  0
 13 18  1  0  0  0
 14 15  1  0  0  0
 15 16  2  0  0  0
 16 17  1  0  0  0
 17 18  2  0  0  0
 18 19  1  0  0  0
 19 20  2  0  0  0
 20 21  1  0  0  0
  1  2  2  0  0  0
  1  3  1  0  0  0
  3 22  1  0  0  0
  3  4  1  0  0  0
 22 23  2  0  0  0
 22 27  1  0  0  0
 23 24  1  0  0  0
 24 25  2  0  0  0
 25 26  1  0  0  0
 25 28  1  0  0  0
 26 27  2  0  0  0
 28 29  2  0  0  0
 28 33  1  0  0  0
 29 30  1  0  0  0
 30 31  2  0  0  0
 31 32  1  0  0  0
 32 33  2  0  0  0
 33 34  1  0  0  0
 34 35  2  0  0  0
 34 36  2  0  0  0
 34 37  1  0  0  0
 37 38  1  0  0  0
 37 39  1  0  0  0
M  END
> <minimizedAffinity>
-11.83586

$$$$
ZINC01494901


 39 43  0  0  0  0  0  0  0  0999 V2000
    4.2669    4.4332   22.2964 C   0  0  0  0  0  0  0  0  0  0  0  0
    3.6322    3.9730   21.3668 O   0  0  0  0  0  0  0  0  0  0  0  0
    5.5480    4.0589   22.4887 N   0  0  0  0  0  0  0  0  0  0  0  0
    6.0270    4.3584   23.2778 H   0  0  0  0  0  0  0  0  0  0  0  0
    1.0056    6.6404   25.4958 C   0  0  0  0  0  0  0  0  0  0  0  0
    2.2085    6.3851   24.6249 C   0  0  0  0  0  0  0  0  0  0  0  0
    2.4317    5.2377   23.8674 C   0  0  0  0  0  0  0  0  0  0  0  0
    3.6378    5.3959   23.2118 C   0  0  0  0  0  0  0  0  0  0  0  0
    4.1355    6.6174   23.5783 N   0  0  0  0  0  0  0  0  0  0  0  0
    3.2166    7.2052   24.4563 N   0  0  0  0  0  0  0  0  0  0  0  0
    5.3429    7.1806   23.1483 C   0  0  0  0  0  0  0  0  0  0  0  0
    5.5520    7.3997   21.8051 C   0  0  0  0  0  0  0  0  0  0  0  0
    6.7668    7.9598   21.3764 C   0  0  0  0  0  0  0  0  0  0  0  0
    7.0149    8.2024   20.0139 C   0  0  0  0  0  0  0  0  0  0  0  0
    8.1998    8.7525   19.6334 C   0  0  0  0  0  0  0  0  0  0  0  0
    9.1719    9.0852   20.5752 C   0  0  0  0  0  0  0  0  0  0  0  0
    8.9649    8.8693   21.9017 C   0  0  0  0  0  0  0  0  0  0  0  0
    7.7540    8.3029   22.3348 C   0  0  0  0  0  0  0  0  0  0  0  0
    7.5083    8.0671   23.6981 C   0  0  0  0  0  0  0  0  0  0  0  0
    6.3256    7.5168   24.0901 C   0  0  0  0  0  0  0  0  0  0  0  0
    6.0966    7.2929   25.4024 F   0  0  0  0  0  0  0  0  0  0  0  0
    6.1848    3.2397   21.5529 C   0  0  0  0  0  0  0  0  0  0  0  0
    6.9240    3.8078   20.5219 C   0  0  0  0  0  0  0  0  0  0  0  0
    7.5586    3.0013   19.6012 C   0  0  0  0  0  0  0  0  0  0  0  0
    7.4482    1.6147   19.6989 C   0  0  0  0  0  0  0  0  0  0  0  0
    6.7015    1.0477   20.7302 C   0  0  0  0  0  0  0  0  0  0  0  0
    6.0743    1.8584   21.6520 C   0  0  0  0  0  0  0  0  0  0  0  0
    8.1247    0.7450   18.7054 C   0  0  0  0  0  0  0  0  0  0  0  0
    9.4601    0.3864   18.8842 C   0  0  0  0  0  0  0  0  0  0  0  0
   10.0846   -0.4220   17.9564 C   0  0  0  0  0  0  0  0  0  0  0  0
    9.3872   -0.8763   16.8510 C   0  0  0  0  0  0  0  0  0  0  0  0
    8.0625   -0.5242   16.6689 C   0  0  0  0  0  0  0  0  0  0  0  0
    7.4261    0.2795   17.5926 C   0  0  0  0  0  0  0  0  0  0  0  0
    5.7363    0.7209   17.3635 S   0  0  0  0  0  0  0  0  0  0  0  0
    5.0148    0.1393   18.4411 O   0  0  0  0  0  0  0  0  0  0  0  0
    5.7136    2.1159   17.0970 O   0  0  0  0  0  0  0  0  0  0  0  0
    5.2155   -0.0333   15.9852 N   0  0  0  0  0  0  0  0  0  0  0  0
    5.8247   -0.5933   15.4776 H   0  0  0  0  0  0  0  0  0  0  0  0
    4.3009    0.0843   15.6829 H   0  0  0  0  0  0  0  0  0  0  0  0
  5  6  1  0  0  0
  6  7  1  0  0  0
  6 10  2  0  0  0
  7  8  2  0  0  0
  8  9  1  0  0  0
  8  1  1  0  0  0
  9 10  1  0  0  0
  9 11  1  0  0  0
 11 12  2  0  0  0
 11 20  1  0  0  0
 12 13  1  0  0  0
 13 14  2  0  0  0
 13 18  1  0  0  0
 14 15  1  0  0  0
 15 16  2  0  0  0
 16 17  1  0  0  0
 17 18  2  0  0  0
 18 19  1  0  0  0
 19 20  2  0  0  0
 20 21  1  0  0  0
  1  2  2  0  0  0
  1  3  1  0  0  0
  3 22  1  0  0  0
  3  4  1  0  0  0
 22 23  2  0  0  0
 22 27  1  0  0  0
 23 24  1  0  0  0
 24 25  2  0  0  0
 25 26  1  0  0  0
 25 28  1  0  0  0
 26 27  2  0  0  0
 28 29  2  0  0  0
 28 33  1  0  0  0
 29 30  1  0  0  0
 30 31  2  0  0  0
 31 32  1  0  0  0
 32 33  2  0  0  0
 33 34  1  0  0  0
 34 35  2  0  0  0
 34 36  2  0  0  0
 34 37  1  0  0  0
 37 38  1  0  0  0
 37 39  1  0  0  0
M  END
> <minimizedAffinity>
-11.29117

$$$$
ZINC01494901


 39 43  0  0  0  0  0  0  0  0999 V2000
    4.8823    4.2956   18.6724 C   0  0  0  0  0  0  0  0  0  0  0  0
    5.5984    5.2641   18.8403 O   0  0  0  0  0  0  0  0  0  0  0  0
    4.4097    4.0121   17.4418 N   0  0  0  0  0  0  0  0  0  0  0  0
    3.7704    3.2918   17.3224 H   0  0  0  0  0  0  0  0  0  0  0  0
    2.8620    2.5987   23.0064 C   0  0  0  0  0  0  0  0  0  0  0  0
    3.6471    2.6701   21.7222 C   0  0  0  0  0  0  0  0  0  0  0  0
    3.7035    3.7680   20.8668 C   0  0  0  0  0  0  0  0  0  0  0  0
    4.5301    3.4350   19.8106 C   0  0  0  0  0  0  0  0  0  0  0  0
    4.9562    2.1517   20.0250 N   0  0  0  0  0  0  0  0  0  0  0  0
    4.3882    1.7099   21.2263 N   0  0  0  0  0  0  0  0  0  0  0  0
    5.8107    1.4153   19.1958 C   0  0  0  0  0  0  0  0  0  0  0  0
    7.1623    1.3947   19.4573 C   0  0  0  0  0  0  0  0  0  0  0  0
    8.0177    0.6594   18.6201 C   0  0  0  0  0  0  0  0  0  0  0  0
    9.4027    0.6108   18.8579 C   0  0  0  0  0  0  0  0  0  0  0  0
   10.2020   -0.1166   18.0312 C   0  0  0  0  0  0  0  0  0  0  0  0
    9.6682   -0.8205   16.9531 C   0  0  0  0  0  0  0  0  0  0  0  0
    8.3331   -0.8005   16.6955 C   0  0  0  0  0  0  0  0  0  0  0  0
    7.4743   -0.0608   17.5262 C   0  0  0  0  0  0  0  0  0  0  0  0
    6.0900   -0.0194   17.2878 C   0  0  0  0  0  0  0  0  0  0  0  0
    5.2807    0.7058   18.1090 C   0  0  0  0  0  0  0  0  0  0  0  0
    3.9510    0.7410   17.8735 F   0  0  0  0  0  0  0  0  0  0  0  0
    4.8395    4.7555   16.3396 C   0  0  0  0  0  0  0  0  0  0  0  0
    4.2123    5.9553   16.0240 C   0  0  0  0  0  0  0  0  0  0  0  0
    4.6389    6.6937   14.9408 C   0  0  0  0  0  0  0  0  0  0  0  0
    5.6931    6.2297   14.1550 C   0  0  0  0  0  0  0  0  0  0  0  0
    6.3164    5.0234   14.4701 C   0  0  0  0  0  0  0  0  0  0  0  0
    5.8903    4.2921   15.5580 C   0  0  0  0  0  0  0  0  0  0  0  0
    6.1495    7.0194   12.9849 C   0  0  0  0  0  0  0  0  0  0  0  0
    5.7545    6.6553   11.6983 C   0  0  0  0  0  0  0  0  0  0  0  0
    6.1828    7.3928   10.6135 C   0  0  0  0  0  0  0  0  0  0  0  0
    7.0023    8.4917   10.8017 C   0  0  0  0  0  0  0  0  0  0  0  0
    7.3968    8.8577   12.0755 C   0  0  0  0  0  0  0  0  0  0  0  0
    6.9706    8.1308   13.1682 C   0  0  0  0  0  0  0  0  0  0  0  0
    7.4675    8.6027   14.7910 S   0  0  0  0  0  0  0  0  0  0  0  0
    6.2989    9.0636   15.4557 O   0  0  0  0  0  0  0  0  0  0  0  0
    8.2623    7.5400   15.2974 O   0  0  0  0  0  0  0  0  0  0  0  0
    8.4693    9.9112   14.6355 N   0  0  0  0  0  0  0  0  0  0  0  0
    8.6735   10.2651   13.7550 H   0  0  0  0  0  0  0  0  0  0  0  0
    8.8539   10.3250   15.4244 H   0  0  0  0  0  0  0  0  0  0  0  0
  5  6  1  0  0  0
  6  7  1  0  0  0
  6 10  2  0  0  0
  7  8  2  0  0  0
  8  9  1  0  0  0
  8  1  1  0  0  0
  9 10  1  0  0  0
  9 11  1  0  0  0
 11 12  2  0  0  0
 11 20  1  0  0  0
 12 13  1  0  0  0
 13 14  2  0  0  0
 13 18  1  0  0  0
 14 15  1  0  0  0
 15 16  2  0  0  0
 16 17  1  0  0  0
 17 18  2  0  0  0
 18 19  1  0  0  0
 19 20  2  0  0  0
 20 21  1  0  0  0
  1  2  2  0  0  0
  1  3  1  0  0  0
  3 22  1  0  0  0
  3  4  1  0  0  0
 22 23  2  0  0  0
 22 27  1  0  0  0
 23 24  1  0  0  0
 24 25  2  0  0  0
 25 26  1  0  0  0
 25 28  1  0  0  0
 26 27  2  0  0  0
 28 29  2  0  0  0
 28 33  1  0  0  0
 29 30  1  0  0  0
 30 31  2  0  0  0
 31 32  1  0  0  0
 32 33  2  0  0  0
 33 34  1  0  0  0
 34 35  2  0  0  0
 34 36  2  0  0  0
 34 37  1  0  0  0
 37 38  1  0  0  0
 37 39  1  0  0  0
M  END
> <minimizedAffinity>
-10.07974

$$$$
