ZINC01490749


 29 32  0  0  0  0  0  0  0  0999 V2000
    5.6480    4.8823   21.1488 N   0  0  0  0  0  0  0  0  0  0  0  0
    6.9752    5.5177   21.0943 C   0  0  0  0  0  0  0  0  0  0  0  0
    6.8353    6.9593   21.5867 C   0  0  0  0  0  0  0  0  0  0  0  0
    6.0556    7.0120   22.8155 N   0  0  0  0  0  0  0  0  0  0  0  0
    5.1999    6.0689   23.2105 C   0  0  0  0  0  0  0  0  0  0  0  0
    4.5486    6.2615   24.2157 O   0  0  0  0  0  0  0  0  0  0  0  0
    5.0022    4.7804   22.4667 C   0  0  0  0  0  0  0  0  0  0  0  0
    4.9081    4.3118   19.7812 S   0  0  0  0  0  0  0  0  0  0  0  0
    4.7209    5.4301   18.9248 O   0  0  0  0  0  0  0  0  0  0  0  0
    3.8287    3.4945   20.2137 O   0  0  0  0  0  0  0  0  0  0  0  0
    6.4852    2.1462   19.5859 C   0  0  0  0  0  0  0  0  0  0  0  0
    6.0551    3.2462   18.9744 C   0  0  0  0  0  0  0  0  0  0  0  0
    8.7837    1.0821   19.1703 C   0  0  0  0  0  0  0  0  0  0  0  0
    9.4896    0.1822   18.4043 C   0  0  0  0  0  0  0  0  0  0  0  0
    8.8469   -0.4920   17.4141 C   0  0  0  0  0  0  0  0  0  0  0  0
    7.1818    0.1388   17.5504 S   0  0  0  0  0  0  0  0  0  0  0  0
    7.4478    1.2590   18.9147 C   0  0  0  0  0  0  0  0  0  0  0  0
    9.4808   -1.6658   16.3029 Cl  0  0  0  0  0  0  0  0  0  0  0  0
    6.2233    8.1844   23.6784 C   0  0  0  0  0  0  0  0  0  0  0  0
    7.5290    8.0771   24.4232 C   0  0  0  0  0  0  0  0  0  0  0  0
    8.6479    8.7550   24.1190 C   0  0  0  0  0  0  0  0  0  0  0  0
    9.6666    8.3543   25.0904 C   0  0  0  0  0  0  0  0  0  0  0  0
   11.0014    8.6868   25.3117 C   0  0  0  0  0  0  0  0  0  0  0  0
   11.6626    8.1295   26.3051 N   0  0  0  0  0  0  0  0  0  0  0  0
   11.1031    7.2496   27.1189 C   0  0  0  0  0  0  0  0  0  0  0  0
    9.7985    6.8666   26.9738 C   0  0  0  0  0  0  0  0  0  0  0  0
    9.0435    7.4184   25.9423 C   0  0  0  0  0  0  0  0  0  0  0  0
    7.7495    7.2778   25.5134 N   0  0  0  0  0  0  0  0  0  0  0  0
    7.0878    6.6967   25.9204 H   0  0  0  0  0  0  0  0  0  0  0  0
 13 14  1  0  0  0
 13 17  2  0  0  0
 14 15  2  0  0  0
 15 16  1  0  0  0
 15 18  1  0  0  0
 16 17  1  0  0  0
 17 11  1  0  0  0
 11 12  2  0  0  0
 12  8  1  0  0  0
  8  9  2  0  0  0
  8 10  2  0  0  0
  8  1  1  0  0  0
  1  2  1  0  0  0
  1  7  1  0  0  0
  2  3  1  0  0  0
  3  4  1  0  0  0
  4  5  1  0  0  0
  4 19  1  0  0  0
  5  6  2  0  0  0
  5  7  1  0  0  0
 19 20  1  0  0  0
 20 21  2  0  0  0
 20 28  1  0  0  0
 21 22  1  0  0  0
 22 23  2  0  0  0
 22 27  1  0  0  0
 23 24  1  0  0  0
 24 25  2  0  0  0
 25 26  1  0  0  0
 26 27  2  0  0  0
 27 28  1  0  0  0
 28 29  1  0  0  0
M  END
> <minimizedAffinity>
-10.06327

$$$$
ZINC01490749


 29 32  0  0  0  0  0  0  0  0999 V2000
    5.0139    6.3662   20.9965 N   0  0  0  0  0  0  0  0  0  0  0  0
    4.3237    5.7836   19.8336 C   0  0  0  0  0  0  0  0  0  0  0  0
    4.7704    4.3273   19.6931 C   0  0  0  0  0  0  0  0  0  0  0  0
    4.7248    3.6467   20.9797 N   0  0  0  0  0  0  0  0  0  0  0  0
    4.7581    4.2606   22.1627 C   0  0  0  0  0  0  0  0  0  0  0  0
    4.7932    3.5814   23.1673 O   0  0  0  0  0  0  0  0  0  0  0  0
    4.7576    5.7542   22.3095 C   0  0  0  0  0  0  0  0  0  0  0  0
    6.0429    7.6537   20.8328 S   0  0  0  0  0  0  0  0  0  0  0  0
    5.2876    8.8180   21.1373 O   0  0  0  0  0  0  0  0  0  0  0  0
    6.7127    7.4833   19.5907 O   0  0  0  0  0  0  0  0  0  0  0  0
    7.6353    8.5739   22.7905 C   0  0  0  0  0  0  0  0  0  0  0  0
    7.2674    7.5048   22.0900 C   0  0  0  0  0  0  0  0  0  0  0  0
    9.8673    9.0975   23.9448 C   0  0  0  0  0  0  0  0  0  0  0  0
   10.6708    8.8207   25.0278 C   0  0  0  0  0  0  0  0  0  0  0  0
   10.2530    7.9102   25.9468 C   0  0  0  0  0  0  0  0  0  0  0  0
    8.6671    7.4160   25.2911 S   0  0  0  0  0  0  0  0  0  0  0  0
    8.6624    8.4511   23.8367 C   0  0  0  0  0  0  0  0  0  0  0  0
   11.0539    7.3678   27.3886 Cl  0  0  0  0  0  0  0  0  0  0  0  0
    4.6364    2.1840   20.9733 C   0  0  0  0  0  0  0  0  0  0  0  0
    5.7312    1.6186   20.1057 C   0  0  0  0  0  0  0  0  0  0  0  0
    7.0448    1.6934   20.3756 C   0  0  0  0  0  0  0  0  0  0  0  0
    7.7442    1.0198   19.2806 C   0  0  0  0  0  0  0  0  0  0  0  0
    9.0789    0.7620   18.9752 C   0  0  0  0  0  0  0  0  0  0  0  0
    9.3879    0.1096   17.8736 N   0  0  0  0  0  0  0  0  0  0  0  0
    8.4674   -0.3204   17.0268 C   0  0  0  0  0  0  0  0  0  0  0  0
    7.1345   -0.1108   17.2489 C   0  0  0  0  0  0  0  0  0  0  0  0
    6.7404    0.5733   18.3957 C   0  0  0  0  0  0  0  0  0  0  0  0
    5.5343    0.9479   18.9277 N   0  0  0  0  0  0  0  0  0  0  0  0
    4.6689    0.7666   18.5285 H   0  0  0  0  0  0  0  0  0  0  0  0
 13 14  1  0  0  0
 13 17  2  0  0  0
 14 15  2  0  0  0
 15 16  1  0  0  0
 15 18  1  0  0  0
 16 17  1  0  0  0
 17 11  1  0  0  0
 11 12  2  0  0  0
 12  8  1  0  0  0
  8  9  2  0  0  0
  8 10  2  0  0  0
  8  1  1  0  0  0
  1  2  1  0  0  0
  1  7  1  0  0  0
  2  3  1  0  0  0
  3  4  1  0  0  0
  4  5  1  0  0  0
  4 19  1  0  0  0
  5  6  2  0  0  0
  5  7  1  0  0  0
 19 20  1  0  0  0
 20 21  2  0  0  0
 20 28  1  0  0  0
 21 22  1  0  0  0
 22 23  2  0  0  0
 22 27  1  0  0  0
 23 24  1  0  0  0
 24 25  2  0  0  0
 25 26  1  0  0  0
 26 27  2  0  0  0
 27 28  1  0  0  0
 28 29  1  0  0  0
M  END
> <minimizedAffinity>
-9.31847

$$$$
ZINC01490749


 29 32  0  0  0  0  0  0  0  0999 V2000
    5.4123    6.0869   21.6076 N   0  0  0  0  0  0  0  0  0  0  0  0
    4.6568    7.2131   22.1813 C   0  0  0  0  0  0  0  0  0  0  0  0
    5.5696    7.9501   23.1629 C   0  0  0  0  0  0  0  0  0  0  0  0
    6.8814    8.1814   22.5744 N   0  0  0  0  0  0  0  0  0  0  0  0
    7.3915    7.4797   21.5620 C   0  0  0  0  0  0  0  0  0  0  0  0
    8.5280    7.7146   21.2086 O   0  0  0  0  0  0  0  0  0  0  0  0
    6.6257    6.4092   20.8408 C   0  0  0  0  0  0  0  0  0  0  0  0
    4.9209    4.5199   21.8229 S   0  0  0  0  0  0  0  0  0  0  0  0
    3.7157    4.3678   21.0857 O   0  0  0  0  0  0  0  0  0  0  0  0
    4.9990    4.2574   23.2177 O   0  0  0  0  0  0  0  0  0  0  0  0
    5.7741    2.7319   20.0090 C   0  0  0  0  0  0  0  0  0  0  0  0
    6.1188    3.4872   21.0480 C   0  0  0  0  0  0  0  0  0  0  0  0
    8.1241    1.7887   19.5893 C   0  0  0  0  0  0  0  0  0  0  0  0
    8.8651    0.8867   18.8598 C   0  0  0  0  0  0  0  0  0  0  0  0
    8.2402    0.1106   17.9349 C   0  0  0  0  0  0  0  0  0  0  0  0
    6.5423    0.6437   18.0836 S   0  0  0  0  0  0  0  0  0  0  0  0
    6.7730    1.8647   19.3652 C   0  0  0  0  0  0  0  0  0  0  0  0
    8.9176   -1.0912   16.8808 Cl  0  0  0  0  0  0  0  0  0  0  0  0
    7.6981    9.2613   23.1347 C   0  0  0  0  0  0  0  0  0  0  0  0
    8.6141    8.7013   24.1921 C   0  0  0  0  0  0  0  0  0  0  0  0
    8.2256    7.9207   25.2137 C   0  0  0  0  0  0  0  0  0  0  0  0
    9.4255    7.6065   25.9907 C   0  0  0  0  0  0  0  0  0  0  0  0
    9.6890    6.8607   27.1377 C   0  0  0  0  0  0  0  0  0  0  0  0
   10.9200    6.7733   27.5975 N   0  0  0  0  0  0  0  0  0  0  0  0
   11.9384    7.3750   27.0058 C   0  0  0  0  0  0  0  0  0  0  0  0
   11.7695    8.1264   25.8759 C   0  0  0  0  0  0  0  0  0  0  0  0
   10.4921    8.2597   25.3382 C   0  0  0  0  0  0  0  0  0  0  0  0
    9.9668    8.9084   24.2514 N   0  0  0  0  0  0  0  0  0  0  0  0
   10.4770    9.4378   23.6184 H   0  0  0  0  0  0  0  0  0  0  0  0
 13 14  1  0  0  0
 13 17  2  0  0  0
 14 15  2  0  0  0
 15 16  1  0  0  0
 15 18  1  0  0  0
 16 17  1  0  0  0
 17 11  1  0  0  0
 11 12  2  0  0  0
 12  8  1  0  0  0
  8  9  2  0  0  0
  8 10  2  0  0  0
  8  1  1  0  0  0
  1  2  1  0  0  0
  1  7  1  0  0  0
  2  3  1  0  0  0
  3  4  1  0  0  0
  4  5  1  0  0  0
  4 19  1  0  0  0
  5  6  2  0  0  0
  5  7  1  0  0  0
 19 20  1  0  0  0
 20 21  2  0  0  0
 20 28  1  0  0  0
 21 22  1  0  0  0
 22 23  2  0  0  0
 22 27  1  0  0  0
 23 24  1  0  0  0
 24 25  2  0  0  0
 25 26  1  0  0  0
 26 27  2  0  0  0
 27 28  1  0  0  0
 28 29  1  0  0  0
M  END
> <minimizedAffinity>
-9.01021

$$$$
