ZINC00538490


 34 36  0  0  0  0  0  0  0  0999 V2000
    7.3518    6.5335   21.3454 C   0  0  0  0  0  0  0  0  0  0  0  0
    8.0129    5.3012   21.2900 C   0  0  0  0  0  0  0  0  0  0  0  0
    7.5021    4.1806   20.6475 C   0  0  0  0  0  0  0  0  0  0  0  0
    6.2192    4.1891   20.1222 C   0  0  0  0  0  0  0  0  0  0  0  0
    5.5395    5.4073   20.0966 C   0  0  0  0  0  0  0  0  0  0  0  0
    6.1101    6.5630   20.6765 C   0  0  0  0  0  0  0  0  0  0  0  0
    3.9778    5.5426   19.3702 Cl  0  0  0  0  0  0  0  0  0  0  0  0
    7.2628    6.7831   24.2392 C   0  0  0  0  0  0  0  0  0  0  0  0
    7.4411    8.0373   23.3520 C   0  0  0  0  0  0  0  0  0  0  0  0
    8.3278    8.8704   24.1541 N   0  0  0  0  0  0  0  0  0  0  0  0
    9.3645    9.3760   23.6042 C   0  0  0  0  0  0  0  0  0  0  0  0
    9.7343    9.1778   22.3217 N   0  0  0  0  0  0  0  0  0  0  0  0
    9.0506    8.3612   21.5854 C   0  0  0  0  0  0  0  0  0  0  0  0
    7.9283    7.6641   21.9907 N   0  0  0  0  0  0  0  0  0  0  0  0
    9.4726    8.2994   20.2990 N   0  0  0  0  0  0  0  0  0  0  0  0
   10.1171   10.2305   24.3339 N   0  0  0  0  0  0  0  0  0  0  0  0
    6.1602    8.9118   23.2809 C   0  0  0  0  0  0  0  0  0  0  0  0
   10.4297    8.6035   20.1713 H   0  0  0  0  0  0  0  0  0  0  0  0
    9.1405    7.6082   19.6508 H   0  0  0  0  0  0  0  0  0  0  0  0
    9.5677   10.6686   25.0613 H   0  0  0  0  0  0  0  0  0  0  0  0
   10.6111   10.8853   23.7429 H   0  0  0  0  0  0  0  0  0  0  0  0
    5.6128    3.0437   19.6610 O   0  0  0  0  0  0  0  0  0  0  0  0
    6.2318    1.8523   20.1649 C   0  0  0  0  0  0  0  0  0  0  0  0
    6.9528    1.0132   19.1483 C   0  0  0  0  0  0  0  0  0  0  0  0
    8.3262    0.8023   19.3364 C   0  0  0  0  0  0  0  0  0  0  0  0
    9.0855    0.1977   18.3426 C   0  0  0  0  0  0  0  0  0  0  0  0
    8.4759   -0.2068   17.1536 C   0  0  0  0  0  0  0  0  0  0  0  0
    7.0896   -0.1062   16.9891 C   0  0  0  0  0  0  0  0  0  0  0  0
    6.3368    0.5201   17.9978 C   0  0  0  0  0  0  0  0  0  0  0  0
    6.3433   -0.5140   15.7624 C   0  0  0  0  0  0  0  0  0  0  0  0
    6.0945   -1.7179   15.6447 O   0  0  0  0  0  0  0  0  0  0  0  0
    5.9465    0.3871   14.7695 N   0  0  0  0  0  0  0  0  0  0  0  0
    6.2256    1.8099   14.6849 C   0  0  0  0  0  0  0  0  0  0  0  0
    5.2301   -0.1943   13.6463 C   0  0  0  0  0  0  0  0  0  0  0  0
  8  9  1  0  0  0
  9 10  1  0  0  0
  9 14  1  0  0  0
  9 17  1  0  0  0
 10 11  2  0  0  0
 11 12  1  0  0  0
 11 16  1  0  0  0
 12 13  2  0  0  0
 13 14  1  0  0  0
 13 15  1  0  0  0
 14  1  1  0  0  0
  1  2  2  0  0  0
  1  6  1  0  0  0
  2  3  1  0  0  0
  3  4  2  0  0  0
  4  5  1  0  0  0
  4 22  1  0  0  0
  5  6  2  0  0  0
  5  7  1  0  0  0
 22 23  1  0  0  0
 23 24  1  0  0  0
 24 25  2  0  0  0
 24 29  1  0  0  0
 25 26  1  0  0  0
 26 27  2  0  0  0
 27 28  1  0  0  0
 28 29  2  0  0  0
 28 30  1  0  0  0
 30 31  2  0  0  0
 30 32  1  0  0  0
 32 33  1  0  0  0
 32 34  1  0  0  0
 15 18  1  0  0  0
 15 19  1  0  0  0
 16 20  1  0  0  0
 16 21  1  0  0  0
M  END
> <minimizedAffinity>
-9.33489

$$$$
ZINC00538490


 34 36  0  0  0  0  0  0  0  0999 V2000
    6.7124    6.2089   21.2903 C   0  0  0  0  0  0  0  0  0  0  0  0
    7.6554    5.3521   20.7111 C   0  0  0  0  0  0  0  0  0  0  0  0
    7.5249    3.9695   20.6814 C   0  0  0  0  0  0  0  0  0  0  0  0
    6.4878    3.3417   21.3537 C   0  0  0  0  0  0  0  0  0  0  0  0
    5.4873    4.1487   21.8963 C   0  0  0  0  0  0  0  0  0  0  0  0
    5.5889    5.5574   21.8411 C   0  0  0  0  0  0  0  0  0  0  0  0
    4.1018    3.4582   22.6633 Cl  0  0  0  0  0  0  0  0  0  0  0  0
    8.2779    7.5416   23.3440 C   0  0  0  0  0  0  0  0  0  0  0  0
    7.2078    8.3235   22.5468 C   0  0  0  0  0  0  0  0  0  0  0  0
    7.8063    9.6467   22.4250 N   0  0  0  0  0  0  0  0  0  0  0  0
    7.8475   10.2019   21.2750 C   0  0  0  0  0  0  0  0  0  0  0  0
    7.4003    9.6445   20.1304 N   0  0  0  0  0  0  0  0  0  0  0  0
    6.9570    8.4281   20.1505 C   0  0  0  0  0  0  0  0  0  0  0  0
    6.8743    7.6233   21.2708 N   0  0  0  0  0  0  0  0  0  0  0  0
    6.4693    8.0032   18.9596 N   0  0  0  0  0  0  0  0  0  0  0  0
    8.3094   11.4707   21.1989 N   0  0  0  0  0  0  0  0  0  0  0  0
    5.9349    8.6253   23.3829 C   0  0  0  0  0  0  0  0  0  0  0  0
    6.8204    8.5271   18.1676 H   0  0  0  0  0  0  0  0  0  0  0  0
    6.2296    7.0446   18.7815 H   0  0  0  0  0  0  0  0  0  0  0  0
    8.1889   11.9549   22.0787 H   0  0  0  0  0  0  0  0  0  0  0  0
    7.9182   11.9597   20.4052 H   0  0  0  0  0  0  0  0  0  0  0  0
    6.4424    1.9759   21.5113 O   0  0  0  0  0  0  0  0  0  0  0  0
    5.7468    1.3214   20.4416 C   0  0  0  0  0  0  0  0  0  0  0  0
    6.6128    0.7502   19.3549 C   0  0  0  0  0  0  0  0  0  0  0  0
    7.9950    0.6985   19.5855 C   0  0  0  0  0  0  0  0  0  0  0  0
    8.8653    0.3586   18.5575 C   0  0  0  0  0  0  0  0  0  0  0  0
    8.3597    0.0615   17.2906 C   0  0  0  0  0  0  0  0  0  0  0  0
    6.9795   -0.0002   17.0666 C   0  0  0  0  0  0  0  0  0  0  0  0
    6.1120    0.3596   18.1128 C   0  0  0  0  0  0  0  0  0  0  0  0
    6.3404   -0.3130   15.7544 C   0  0  0  0  0  0  0  0  0  0  0  0
    6.1151   -1.5049   15.5226 O   0  0  0  0  0  0  0  0  0  0  0  0
    6.0163    0.6619   14.8059 N   0  0  0  0  0  0  0  0  0  0  0  0
    6.2859    2.0882   14.8563 C   0  0  0  0  0  0  0  0  0  0  0  0
    5.4005    0.1680   13.5854 C   0  0  0  0  0  0  0  0  0  0  0  0
  8  9  1  0  0  0
  9 10  1  0  0  0
  9 14  1  0  0  0
  9 17  1  0  0  0
 10 11  2  0  0  0
 11 12  1  0  0  0
 11 16  1  0  0  0
 12 13  2  0  0  0
 13 14  1  0  0  0
 13 15  1  0  0  0
 14  1  1  0  0  0
  1  2  2  0  0  0
  1  6  1  0  0  0
  2  3  1  0  0  0
  3  4  2  0  0  0
  4  5  1  0  0  0
  4 22  1  0  0  0
  5  6  2  0  0  0
  5  7  1  0  0  0
 22 23  1  0  0  0
 23 24  1  0  0  0
 24 25  2  0  0  0
 24 29  1  0  0  0
 25 26  1  0  0  0
 26 27  2  0  0  0
 27 28  1  0  0  0
 28 29  2  0  0  0
 28 30  1  0  0  0
 30 31  2  0  0  0
 30 32  1  0  0  0
 32 33  1  0  0  0
 32 34  1  0  0  0
 15 18  1  0  0  0
 15 19  1  0  0  0
 16 20  1  0  0  0
 16 21  1  0  0  0
M  END
> <minimizedAffinity>
-9.27487

$$$$
ZINC00538490


 34 36  0  0  0  0  0  0  0  0999 V2000
    5.5649    2.0400   20.1739 C   0  0  0  0  0  0  0  0  0  0  0  0
    6.7745    1.4144   20.4966 C   0  0  0  0  0  0  0  0  0  0  0  0
    7.7005    0.9927   19.5510 C   0  0  0  0  0  0  0  0  0  0  0  0
    7.4093    1.0575   18.1971 C   0  0  0  0  0  0  0  0  0  0  0  0
    6.2450    1.7262   17.8178 C   0  0  0  0  0  0  0  0  0  0  0  0
    5.3535    2.2298   18.7921 C   0  0  0  0  0  0  0  0  0  0  0  0
    5.8470    1.9498   16.1516 Cl  0  0  0  0  0  0  0  0  0  0  0  0
    3.5212    0.2508   21.2067 C   0  0  0  0  0  0  0  0  0  0  0  0
    3.3468    1.7835   21.3186 C   0  0  0  0  0  0  0  0  0  0  0  0
    2.6630    1.9329   22.5968 N   0  0  0  0  0  0  0  0  0  0  0  0
    3.1159    2.7753   23.4442 C   0  0  0  0  0  0  0  0  0  0  0  0
    4.2156    3.5366   23.2661 N   0  0  0  0  0  0  0  0  0  0  0  0
    4.9311    3.3744   22.1992 C   0  0  0  0  0  0  0  0  0  0  0  0
    4.6591    2.4823   21.1795 N   0  0  0  0  0  0  0  0  0  0  0  0
    5.9664    4.2428   22.0968 N   0  0  0  0  0  0  0  0  0  0  0  0
    2.4087    2.9763   24.5793 N   0  0  0  0  0  0  0  0  0  0  0  0
    2.2927    2.3438   20.3259 C   0  0  0  0  0  0  0  0  0  0  0  0
    6.2479    4.6443   22.9825 H   0  0  0  0  0  0  0  0  0  0  0  0
    6.6903    4.1465   21.4077 H   0  0  0  0  0  0  0  0  0  0  0  0
    1.4325    2.7486   24.4446 H   0  0  0  0  0  0  0  0  0  0  0  0
    2.5656    3.9022   24.9536 H   0  0  0  0  0  0  0  0  0  0  0  0
    8.2142    0.4687   17.2495 O   0  0  0  0  0  0  0  0  0  0  0  0
    9.3747   -0.1503   17.8210 C   0  0  0  0  0  0  0  0  0  0  0  0
    9.8472   -1.4027   17.1388 C   0  0  0  0  0  0  0  0  0  0  0  0
   11.1154   -1.8915   17.4839 C   0  0  0  0  0  0  0  0  0  0  0  0
   11.6871   -2.9306   16.7607 C   0  0  0  0  0  0  0  0  0  0  0  0
   10.9922   -3.4942   15.6891 C   0  0  0  0  0  0  0  0  0  0  0  0
    9.6825   -3.0971   15.3964 C   0  0  0  0  0  0  0  0  0  0  0  0
    9.1227   -2.0352   16.1282 C   0  0  0  0  0  0  0  0  0  0  0  0
    8.8548   -3.6400   14.2790 C   0  0  0  0  0  0  0  0  0  0  0  0
    8.9707   -3.0782   13.1855 O   0  0  0  0  0  0  0  0  0  0  0  0
    7.9715   -4.7136   14.4287 N   0  0  0  0  0  0  0  0  0  0  0  0
    7.6322   -5.4345   15.6431 C   0  0  0  0  0  0  0  0  0  0  0  0
    7.2490   -5.1020   13.2287 C   0  0  0  0  0  0  0  0  0  0  0  0
  8  9  1  0  0  0
  9 10  1  0  0  0
  9 14  1  0  0  0
  9 17  1  0  0  0
 10 11  2  0  0  0
 11 12  1  0  0  0
 11 16  1  0  0  0
 12 13  2  0  0  0
 13 14  1  0  0  0
 13 15  1  0  0  0
 14  1  1  0  0  0
  1  2  2  0  0  0
  1  6  1  0  0  0
  2  3  1  0  0  0
  3  4  2  0  0  0
  4  5  1  0  0  0
  4 22  1  0  0  0
  5  6  2  0  0  0
  5  7  1  0  0  0
 22 23  1  0  0  0
 23 24  1  0  0  0
 24 25  2  0  0  0
 24 29  1  0  0  0
 25 26  1  0  0  0
 26 27  2  0  0  0
 27 28  1  0  0  0
 28 29  2  0  0  0
 28 30  1  0  0  0
 30 31  2  0  0  0
 30 32  1  0  0  0
 32 33  1  0  0  0
 32 34  1  0  0  0
 15 18  1  0  0  0
 15 19  1  0  0  0
 16 20  1  0  0  0
 16 21  1  0  0  0
M  END
> <minimizedAffinity>
-8.73693

$$$$
