ZINC00577969


 38 41  0  0  0  0  0  0  0  0999 V2000
    6.0738    5.6699   21.3018 C   0  0  0  0  0  0  0  0  0  0  0  0
    4.7373    5.2419   20.6897 C   0  0  0  0  0  0  0  0  0  0  0  0
    4.4346    3.7987   21.1011 C   0  0  0  0  0  0  0  0  0  0  0  0
    6.7969    3.2813   21.2452 C   0  0  0  0  0  0  0  0  0  0  0  0
    7.1715    4.7080   20.8385 C   0  0  0  0  0  0  0  0  0  0  0  0
    5.5150    2.9204   20.6046 N   0  0  0  0  0  0  0  0  0  0  0  0
    5.6041    3.0428   19.5890 H   0  0  0  0  0  0  0  0  0  0  0  0
    5.9773    5.6350   22.7634 N   0  0  0  0  0  0  0  0  0  0  0  0
    6.0285    4.7874   23.2328 H   0  0  0  0  0  0  0  0  0  0  0  0
    2.9941    9.0466   24.6654 C   0  0  0  0  0  0  0  0  0  0  0  0
    4.3764    8.4988   24.4182 C   0  0  0  0  0  0  0  0  0  0  0  0
    5.4832    9.1716   24.9030 C   0  0  0  0  0  0  0  0  0  0  0  0
    6.7528    8.6699   24.6844 C   0  0  0  0  0  0  0  0  0  0  0  0
    6.9206    7.4975   23.9745 C   0  0  0  0  0  0  0  0  0  0  0  0
    5.8115    6.8212   23.4811 C   0  0  0  0  0  0  0  0  0  0  0  0
    4.5369    7.3284   23.7030 C   0  0  0  0  0  0  0  0  0  0  0  0
    5.1889    1.5078   20.8899 C   0  0  0  0  0  0  0  0  0  0  0  0
    4.4975    0.9119   19.6900 C   0  0  0  0  0  0  0  0  0  0  0  0
    3.4070    0.1226   19.7026 C   0  0  0  0  0  0  0  0  0  0  0  0
    3.1081   -0.1906   18.4328 N   0  0  0  0  0  0  0  0  0  0  0  0
    3.9772    0.3668   17.6348 C   0  0  0  0  0  0  0  0  0  0  0  0
    4.8619    1.0650   18.3797 N   0  0  0  0  0  0  0  0  0  0  0  0
    5.9986    1.8400   17.8772 C   0  0  0  0  0  0  0  0  0  0  0  0
    7.2063    0.9456   17.7651 C   0  0  0  0  0  0  0  0  0  0  0  0
    7.2969    0.0386   16.7240 C   0  0  0  0  0  0  0  0  0  0  0  0
    8.4027   -0.7796   16.6129 C   0  0  0  0  0  0  0  0  0  0  0  0
    9.4258   -0.6988   17.5600 C   0  0  0  0  0  0  0  0  0  0  0  0
    9.3245    0.2152   18.6105 C   0  0  0  0  0  0  0  0  0  0  0  0
    8.2166    1.0318   18.7065 C   0  0  0  0  0  0  0  0  0  0  0  0
   10.5731   -1.5485   17.4533 C   0  0  0  0  0  0  0  0  0  0  0  0
   11.4835   -2.2224   17.3692 N   0  0  0  0  0  0  0  0  0  0  0  0
    6.4135    7.0911   20.8462 C   0  0  0  0  0  0  0  0  0  0  0  0
    7.7723    7.1237   20.3342 O   0  0  0  0  0  0  0  0  0  0  0  0
    8.4802    8.2484   20.5506 C   0  0  0  0  0  0  0  0  0  0  0  0
    7.9435    9.2171   21.0517 O   0  0  0  0  0  0  0  0  0  0  0  0
    9.7838    8.2995   20.2125 N   0  0  0  0  0  0  0  0  0  0  0  0
   10.1934    7.5529   19.7471 H   0  0  0  0  0  0  0  0  0  0  0  0
   10.3117    9.0821   20.4334 H   0  0  0  0  0  0  0  0  0  0  0  0
 10 11  1  0  0  0
 11 12  2  0  0  0
 11 16  1  0  0  0
 12 13  1  0  0  0
 13 14  2  0  0  0
 14 15  1  0  0  0
 15 16  2  0  0  0
 15  8  1  0  0  0
  8  9  1  0  0  0
  1  8  1  0  0  0
  1  2  1  0  0  0
  1  5  1  0  0  0
  1 32  1  0  0  0
  2  3  1  0  0  0
  3  6  1  0  0  0
  4  5  1  0  0  0
  4  6  1  0  0  0
 17 18  1  0  0  0
 17  6  1  0  0  0
 18 19  2  0  0  0
 18 22  1  0  0  0
 19 20  1  0  0  0
 20 21  2  0  0  0
 21 22  1  0  0  0
 22 23  1  0  0  0
 23 24  1  0  0  0
 24 25  2  0  0  0
 24 29  1  0  0  0
 25 26  1  0  0  0
 26 27  2  0  0  0
 27 28  1  0  0  0
 27 30  1  0  0  0
 28 29  2  0  0  0
 30 31  3  0  0  0
 32 33  1  0  0  0
 33 34  1  0  0  0
 34 35  2  0  0  0
 34 36  1  0  0  0
 36 37  1  0  0  0
 36 38  1  0  0  0
  6  7  1  0  0  0
M  CHG 1   6   1
M  END
> <minimizedAffinity>
-9.09981

$$$$
ZINC00577969


 38 41  0  0  0  0  0  0  0  0999 V2000
    6.6621    6.1905   21.5571 C   0  0  0  0  0  0  0  0  0  0  0  0
    6.0153    6.9846   20.4191 C   0  0  0  0  0  0  0  0  0  0  0  0
    4.9144    6.1368   19.7762 C   0  0  0  0  0  0  0  0  0  0  0  0
    6.0779    4.0889   20.3431 C   0  0  0  0  0  0  0  0  0  0  0  0
    7.2136    4.8738   21.0030 C   0  0  0  0  0  0  0  0  0  0  0  0
    5.5137    4.8960   19.2412 N   0  0  0  0  0  0  0  0  0  0  0  0
    6.2679    5.1437   18.5898 H   0  0  0  0  0  0  0  0  0  0  0  0
    5.6604    5.9064   22.5879 N   0  0  0  0  0  0  0  0  0  0  0  0
    5.3577    4.9958   22.7324 H   0  0  0  0  0  0  0  0  0  0  0  0
    2.0027    9.0455   23.5489 C   0  0  0  0  0  0  0  0  0  0  0  0
    3.3699    8.4872   23.8509 C   0  0  0  0  0  0  0  0  0  0  0  0
    4.1118    9.0046   24.8972 C   0  0  0  0  0  0  0  0  0  0  0  0
    5.3636    8.4916   25.1823 C   0  0  0  0  0  0  0  0  0  0  0  0
    5.8809    7.4645   24.4180 C   0  0  0  0  0  0  0  0  0  0  0  0
    5.1408    6.9455   23.3626 C   0  0  0  0  0  0  0  0  0  0  0  0
    3.8829    7.4634   23.0792 C   0  0  0  0  0  0  0  0  0  0  0  0
    4.4918    4.1137   18.5153 C   0  0  0  0  0  0  0  0  0  0  0  0
    5.0379    3.7272   17.1643 C   0  0  0  0  0  0  0  0  0  0  0  0
    5.2131    4.5419   16.1070 C   0  0  0  0  0  0  0  0  0  0  0  0
    5.7222    3.8128   15.1025 N   0  0  0  0  0  0  0  0  0  0  0  0
    5.8604    2.5757   15.4941 C   0  0  0  0  0  0  0  0  0  0  0  0
    5.4451    2.4796   16.7761 N   0  0  0  0  0  0  0  0  0  0  0  0
    5.4330    1.2658   17.5957 C   0  0  0  0  0  0  0  0  0  0  0  0
    6.8370    0.7340   17.7268 C   0  0  0  0  0  0  0  0  0  0  0  0
    7.3140   -0.1838   16.8076 C   0  0  0  0  0  0  0  0  0  0  0  0
    8.6006   -0.6706   16.9192 C   0  0  0  0  0  0  0  0  0  0  0  0
    9.4172   -0.2439   17.9686 C   0  0  0  0  0  0  0  0  0  0  0  0
    8.9267    0.6782   18.8950 C   0  0  0  0  0  0  0  0  0  0  0  0
    7.6408    1.1619   18.7685 C   0  0  0  0  0  0  0  0  0  0  0  0
   10.7510   -0.7491   18.0930 C   0  0  0  0  0  0  0  0  0  0  0  0
   11.8094   -1.1493   18.1916 N   0  0  0  0  0  0  0  0  0  0  0  0
    7.8043    7.0072   22.1663 C   0  0  0  0  0  0  0  0  0  0  0  0
    7.7487    8.3682   21.6623 O   0  0  0  0  0  0  0  0  0  0  0  0
    8.8858    9.0873   21.7175 C   0  0  0  0  0  0  0  0  0  0  0  0
    9.0654    9.8709   22.6292 O   0  0  0  0  0  0  0  0  0  0  0  0
    9.8247    8.9374   20.7624 N   0  0  0  0  0  0  0  0  0  0  0  0
    9.6507    8.3667   19.9971 H   0  0  0  0  0  0  0  0  0  0  0  0
   10.6731    9.4002   20.8396 H   0  0  0  0  0  0  0  0  0  0  0  0
 10 11  1  0  0  0
 11 12  2  0  0  0
 11 16  1  0  0  0
 12 13  1  0  0  0
 13 14  2  0  0  0
 14 15  1  0  0  0
 15 16  2  0  0  0
 15  8  1  0  0  0
  8  9  1  0  0  0
  1  8  1  0  0  0
  1  2  1  0  0  0
  1  5  1  0  0  0
  1 32  1  0  0  0
  2  3  1  0  0  0
  3  6  1  0  0  0
  4  5  1  0  0  0
  4  6  1  0  0  0
 17 18  1  0  0  0
 17  6  1  0  0  0
 18 19  2  0  0  0
 18 22  1  0  0  0
 19 20  1  0  0  0
 20 21  2  0  0  0
 21 22  1  0  0  0
 22 23  1  0  0  0
 23 24  1  0  0  0
 24 25  2  0  0  0
 24 29  1  0  0  0
 25 26  1  0  0  0
 26 27  2  0  0  0
 27 28  1  0  0  0
 27 30  1  0  0  0
 28 29  2  0  0  0
 30 31  3  0  0  0
 32 33  1  0  0  0
 33 34  1  0  0  0
 34 35  2  0  0  0
 34 36  1  0  0  0
 36 37  1  0  0  0
 36 38  1  0  0  0
  6  7  1  0  0  0
M  CHG 1   6   1
M  END
> <minimizedAffinity>
-9.09419

$$$$
ZINC00577969


 38 41  0  0  0  0  0  0  0  0999 V2000
    6.8010    7.2493   22.9059 C   0  0  0  0  0  0  0  0  0  0  0  0
    7.1084    6.2164   21.8184 C   0  0  0  0  0  0  0  0  0  0  0  0
    5.7932    5.6954   21.2329 C   0  0  0  0  0  0  0  0  0  0  0  0
    4.6412    6.0718   23.3306 C   0  0  0  0  0  0  0  0  0  0  0  0
    5.9206    6.6040   23.9797 C   0  0  0  0  0  0  0  0  0  0  0  0
    5.0032    5.0647   22.3114 N   0  0  0  0  0  0  0  0  0  0  0  0
    5.5691    4.3313   22.7542 H   0  0  0  0  0  0  0  0  0  0  0  0
    6.0953    8.3890   22.3142 N   0  0  0  0  0  0  0  0  0  0  0  0
    5.2026    8.6178   22.6182 H   0  0  0  0  0  0  0  0  0  0  0  0
    6.5294    9.5487   17.5579 C   0  0  0  0  0  0  0  0  0  0  0  0
    6.9370    9.7288   18.9978 C   0  0  0  0  0  0  0  0  0  0  0  0
    7.9183   10.6456   19.3286 C   0  0  0  0  0  0  0  0  0  0  0  0
    8.2912   10.8191   20.6486 C   0  0  0  0  0  0  0  0  0  0  0  0
    7.6893   10.0718   21.6415 C   0  0  0  0  0  0  0  0  0  0  0  0
    6.7066    9.1459   21.3127 C   0  0  0  0  0  0  0  0  0  0  0  0
    6.3342    8.9744   19.9850 C   0  0  0  0  0  0  0  0  0  0  0  0
    3.7806    4.4532   21.7505 C   0  0  0  0  0  0  0  0  0  0  0  0
    3.8510    2.9585   21.9343 C   0  0  0  0  0  0  0  0  0  0  0  0
    3.6352    2.2799   23.0768 C   0  0  0  0  0  0  0  0  0  0  0  0
    3.7917    0.9729   22.8177 N   0  0  0  0  0  0  0  0  0  0  0  0
    4.1053    0.8167   21.5607 C   0  0  0  0  0  0  0  0  0  0  0  0
    4.1521    2.0322   20.9730 N   0  0  0  0  0  0  0  0  0  0  0  0
    4.4672    2.3057   19.5690 C   0  0  0  0  0  0  0  0  0  0  0  0
    5.8251    1.7411   19.2396 C   0  0  0  0  0  0  0  0  0  0  0  0
    6.9583    2.2998   19.8042 C   0  0  0  0  0  0  0  0  0  0  0  0
    8.2042    1.7840   19.5107 C   0  0  0  0  0  0  0  0  0  0  0  0
    8.3208    0.7038   18.6333 C   0  0  0  0  0  0  0  0  0  0  0  0
    7.1733    0.1492   18.0636 C   0  0  0  0  0  0  0  0  0  0  0  0
    5.9331    0.6702   18.3703 C   0  0  0  0  0  0  0  0  0  0  0  0
    9.6109    0.1674   18.3206 C   0  0  0  0  0  0  0  0  0  0  0  0
   10.6345   -0.2582   18.0731 N   0  0  0  0  0  0  0  0  0  0  0  0
    8.1088    7.7311   23.5384 C   0  0  0  0  0  0  0  0  0  0  0  0
    8.3694    6.9724   24.7492 O   0  0  0  0  0  0  0  0  0  0  0  0
    9.1008    7.5775   25.7041 C   0  0  0  0  0  0  0  0  0  0  0  0
    9.7116    8.5965   25.4472 O   0  0  0  0  0  0  0  0  0  0  0  0
    9.1548    7.0536   26.9447 N   0  0  0  0  0  0  0  0  0  0  0  0
    8.7269    6.2027   27.1304 H   0  0  0  0  0  0  0  0  0  0  0  0
    9.6215    7.5264   27.6507 H   0  0  0  0  0  0  0  0  0  0  0  0
 10 11  1  0  0  0
 11 12  2  0  0  0
 11 16  1  0  0  0
 12 13  1  0  0  0
 13 14  2  0  0  0
 14 15  1  0  0  0
 15 16  2  0  0  0
 15  8  1  0  0  0
  8  9  1  0  0  0
  1  8  1  0  0  0
  1  2  1  0  0  0
  1  5  1  0  0  0
  1 32  1  0  0  0
  2  3  1  0  0  0
  3  6  1  0  0  0
  4  5  1  0  0  0
  4  6  1  0  0  0
 17 18  1  0  0  0
 17  6  1  0  0  0
 18 19  2  0  0  0
 18 22  1  0  0  0
 19 20  1  0  0  0
 20 21  2  0  0  0
 21 22  1  0  0  0
 22 23  1  0  0  0
 23 24  1  0  0  0
 24 25  2  0  0  0
 24 29  1  0  0  0
 25 26  1  0  0  0
 26 27  2  0  0  0
 27 28  1  0  0  0
 27 30  1  0  0  0
 28 29  2  0  0  0
 30 31  3  0  0  0
 32 33  1  0  0  0
 33 34  1  0  0  0
 34 35  2  0  0  0
 34 36  1  0  0  0
 36 37  1  0  0  0
 36 38  1  0  0  0
  6  7  1  0  0  0
M  CHG 1   6   1
M  END
> <minimizedAffinity>
-8.96779

$$$$
