ZINC00577969
 OpenBabel07192215303D

 38 41  0  0  0  0  0  0  0  0999 V2000
    6.0738    5.6699   21.3018 C   0  0  2  0  0  0  0  0  0  0  0  0
    4.7373    5.2419   20.6897 C   0  0  0  0  0  0  0  0  0  0  0  0
    4.4346    3.7987   21.1011 C   0  0  0  0  0  0  0  0  0  0  0  0
    6.7969    3.2813   21.2452 C   0  0  0  0  0  0  0  0  0  0  0  0
    7.1715    4.7080   20.8385 C   0  0  0  0  0  0  0  0  0  0  0  0
    5.5150    2.9204   20.6046 N   0  3  1  0  0  0  0  0  0  0  0  0
    5.6041    3.0428   19.5890 H   0  0  0  0  0  0  0  0  0  0  0  0
    5.9773    5.6350   22.7634 N   0  0  0  0  0  0  0  0  0  0  0  0
    6.0285    4.7874   23.2328 H   0  0  0  0  0  0  0  0  0  0  0  0
    2.9941    9.0466   24.6654 C   0  0  0  0  0  0  0  0  0  0  0  0
    4.3764    8.4988   24.4182 C   0  0  0  0  0  0  0  0  0  0  0  0
    5.4832    9.1716   24.9030 C   0  0  0  0  0  0  0  0  0  0  0  0
    6.7528    8.6699   24.6844 C   0  0  0  0  0  0  0  0  0  0  0  0
    6.9206    7.4975   23.9745 C   0  0  0  0  0  0  0  0  0  0  0  0
    5.8115    6.8212   23.4811 C   0  0  0  0  0  0  0  0  0  0  0  0
    4.5369    7.3284   23.7030 C   0  0  0  0  0  0  0  0  0  0  0  0
    5.1889    1.5078   20.8899 C   0  0  0  0  0  0  0  0  0  0  0  0
    4.4975    0.9119   19.6900 C   0  0  0  0  0  0  0  0  0  0  0  0
    3.4070    0.1226   19.7026 C   0  0  0  0  0  0  0  0  0  0  0  0
    3.1081   -0.1906   18.4328 N   0  0  0  0  0  0  0  0  0  0  0  0
    3.9772    0.3668   17.6348 C   0  0  0  0  0  0  0  0  0  0  0  0
    4.8619    1.0650   18.3797 N   0  0  0  0  0  0  0  0  0  0  0  0
    5.9986    1.8400   17.8772 C   0  0  0  0  0  0  0  0  0  0  0  0
    7.2063    0.9456   17.7651 C   0  0  0  0  0  0  0  0  0  0  0  0
    7.2969    0.0386   16.7240 C   0  0  0  0  0  0  0  0  0  0  0  0
    8.4027   -0.7796   16.6129 C   0  0  0  0  0  0  0  0  0  0  0  0
    9.4258   -0.6988   17.5600 C   0  0  0  0  0  0  0  0  0  0  0  0
    9.3245    0.2152   18.6105 C   0  0  0  0  0  0  0  0  0  0  0  0
    8.2166    1.0318   18.7065 C   0  0  0  0  0  0  0  0  0  0  0  0
   10.5731   -1.5485   17.4533 C   0  0  0  0  0  0  0  0  0  0  0  0
   11.4835   -2.2224   17.3692 N   0  0  0  0  0  0  0  0  0  0  0  0
    6.4135    7.0911   20.8462 C   0  0  0  0  0  0  0  0  0  0  0  0
    7.7723    7.1237   20.3342 O   0  0  0  0  0  0  0  0  0  0  0  0
    8.4802    8.2484   20.5506 C   0  0  0  0  0  0  0  0  0  0  0  0
    7.9435    9.2171   21.0517 O   0  0  0  0  0  0  0  0  0  0  0  0
    9.7838    8.2995   20.2125 N   0  0  0  0  0  0  0  0  0  0  0  0
   10.1934    7.5529   19.7471 H   0  0  0  0  0  0  0  0  0  0  0  0
   10.3117    9.0821   20.4334 H   0  0  0  0  0  0  0  0  0  0  0  0
  1  8  1  0  0  0  0
  1  2  1  0  0  0  0
  1  5  1  0  0  0  0
  1 32  1  6  0  0  0
  2  3  1  0  0  0  0
  3  6  1  0  0  0  0
  4  5  1  0  0  0  0
  4  6  1  0  0  0  0
  6  7  1  6  0  0  0
  8  9  1  0  0  0  0
 10 11  1  0  0  0  0
 11 12  2  0  0  0  0
 11 16  1  0  0  0  0
 12 13  1  0  0  0  0
 13 14  2  0  0  0  0
 14 15  1  0  0  0  0
 15 16  2  0  0  0  0
 15  8  1  0  0  0  0
 17 18  1  0  0  0  0
 17  6  1  0  0  0  0
 18 19  2  0  0  0  0
 18 22  1  0  0  0  0
 19 20  1  0  0  0  0
 20 21  2  0  0  0  0
 21 22  1  0  0  0  0
 22 23  1  0  0  0  0
 23 24  1  0  0  0  0
 24 25  2  0  0  0  0
 24 29  1  0  0  0  0
 25 26  1  0  0  0  0
 26 27  2  0  0  0  0
 27 28  1  0  0  0  0
 27 30  1  0  0  0  0
 28 29  2  0  0  0  0
 30 31  3  0  0  0  0
 32 33  1  0  0  0  0
 33 34  1  0  0  0  0
 34 35  2  0  0  0  0
 34 36  1  0  0  0  0
 36 37  1  0  0  0  0
 36 38  1  0  0  0  0
M  CHG  1   6   1
M  END
>  <minimizedAffinity>
-9.09981

$$$$
