ZINC01493808


 38 41  0  0  0  0  0  0  0  0999 V2000
    5.9377    3.4117   21.8506 C   0  0  0  0  0  0  0  0  0  0  0  0
    6.8973    4.0528   21.0546 C   0  0  0  0  0  0  0  0  0  0  0  0
    7.6418    3.3076   20.1349 C   0  0  0  0  0  0  0  0  0  0  0  0
    7.4236    1.9524   20.0071 C   0  0  0  0  0  0  0  0  0  0  0  0
    6.4706    1.3193   20.7912 C   0  0  0  0  0  0  0  0  0  0  0  0
    5.7284    2.0414   21.7099 C   0  0  0  0  0  0  0  0  0  0  0  0
    8.3454    1.0336   18.8594 Cl  0  0  0  0  0  0  0  0  0  0  0  0
    3.9799    4.6224   22.4326 C   0  0  0  0  0  0  0  0  0  0  0  0
    3.5796    4.5085   21.2879 O   0  0  0  0  0  0  0  0  0  0  0  0
    5.1924    4.1428   22.7742 N   0  0  0  0  0  0  0  0  0  0  0  0
    5.5455    4.3067   23.6625 H   0  0  0  0  0  0  0  0  0  0  0  0
    2.2597    6.9597   24.8334 C   0  0  0  0  0  0  0  0  0  0  0  0
    1.4042    6.0236   25.3193 C   0  0  0  0  0  0  0  0  0  0  0  0
    1.8285    4.5970   24.4305 S   0  0  0  0  0  0  0  0  0  0  0  0
    3.1439    5.2813   23.4370 C   0  0  0  0  0  0  0  0  0  0  0  0
    3.1668    6.6020   23.8657 C   0  0  0  0  0  0  0  0  0  0  0  0
    4.2916    7.7481   23.2083 Cl  0  0  0  0  0  0  0  0  0  0  0  0
    2.2189    8.3732   25.3542 C   0  0  0  0  0  0  0  0  0  0  0  0
   -0.1373    9.1020   25.9513 C   0  0  0  0  0  0  0  0  0  0  0  0
    0.9488    8.9968   24.9739 N   0  0  0  0  0  0  0  0  0  0  0  0
    0.7776    9.4835   23.7016 C   0  0  0  0  0  0  0  0  0  0  0  0
    0.6906   10.7502   23.4325 N   0  0  0  0  0  0  0  0  0  0  0  0
    0.5246   10.9069   21.9746 C   0  0  0  0  0  0  0  0  0  0  0  0
    0.9180    9.5041   21.4512 C   0  0  0  0  0  0  0  0  0  0  0  0
    0.6775    8.6886   22.6163 O   0  0  0  0  0  0  0  0  0  0  0  0
    7.1236    5.5027   21.1899 C   0  0  0  0  0  0  0  0  0  0  0  0
    7.4210    5.9732   22.2708 O   0  0  0  0  0  0  0  0  0  0  0  0
    7.0018    6.3077   20.1162 N   0  0  0  0  0  0  0  0  0  0  0  0
    6.6942    5.9442   19.2709 H   0  0  0  0  0  0  0  0  0  0  0  0
    7.3163    7.6618   20.2196 C   0  0  0  0  0  0  0  0  0  0  0  0
    8.5992    8.0433   20.5954 C   0  0  0  0  0  0  0  0  0  0  0  0
    8.8982    9.3904   20.6940 C   0  0  0  0  0  0  0  0  0  0  0  0
    7.8985   10.3136   20.4128 C   0  0  0  0  0  0  0  0  0  0  0  0
    6.6455    9.8623   20.0447 C   0  0  0  0  0  0  0  0  0  0  0  0
    6.3923    8.5702   19.9541 N   0  0  0  0  0  0  0  0  0  0  0  0
    8.2204   12.0164   20.5221 Cl  0  0  0  0  0  0  0  0  0  0  0  0
    4.7951    1.4132   22.4739 O   0  0  0  0  0  0  0  0  0  0  0  0
    3.7271    0.7597   21.7863 C   0  0  0  0  0  0  0  0  0  0  0  0
 19 20  1  0  0  0
 20 18  1  0  0  0
 20 21  1  0  0  0
 18 12  1  0  0  0
 12 13  2  0  0  0
 12 16  1  0  0  0
 13 14  1  0  0  0
 14 15  1  0  0  0
 15 16  2  0  0  0
 15  8  1  0  0  0
 16 17  1  0  0  0
  8  9  2  0  0  0
  8 10  1  0  0  0
 10  1  1  0  0  0
 10 11  1  0  0  0
  1  2  2  0  0  0
  1  6  1  0  0  0
  2  3  1  0  0  0
  2 26  1  0  0  0
  3  4  2  0  0  0
  4  5  1  0  0  0
  4  7  1  0  0  0
  5  6  2  0  0  0
  6 37  1  0  0  0
 37 38  1  0  0  0
 26 27  2  0  0  0
 26 28  1  0  0  0
 28 30  1  0  0  0
 28 29  1  0  0  0
 30 31  2  0  0  0
 30 35  1  0  0  0
 31 32  1  0  0  0
 32 33  2  0  0  0
 33 34  1  0  0  0
 33 36  1  0  0  0
 34 35  2  0  0  0
 21 22  2  0  0  0
 21 25  1  0  0  0
 22 23  1  0  0  0
 23 24  1  0  0  0
 24 25  1  0  0  0
M  END
> <minimizedAffinity>
-9.11662

$$$$
ZINC01493808


 38 41  0  0  0  0  0  0  0  0999 V2000
    5.5262    3.4431   21.6654 C   0  0  0  0  0  0  0  0  0  0  0  0
    6.4645    3.9989   20.7843 C   0  0  0  0  0  0  0  0  0  0  0  0
    7.3027    3.1573   20.0464 C   0  0  0  0  0  0  0  0  0  0  0  0
    7.1974    1.7892   20.1794 C   0  0  0  0  0  0  0  0  0  0  0  0
    6.2656    1.2395   21.0474 C   0  0  0  0  0  0  0  0  0  0  0  0
    5.4315    2.0585   21.7889 C   0  0  0  0  0  0  0  0  0  0  0  0
    8.2354    0.7493   19.2563 Cl  0  0  0  0  0  0  0  0  0  0  0  0
    3.4023    4.4358   22.0405 C   0  0  0  0  0  0  0  0  0  0  0  0
    2.9994    3.9461   21.0006 O   0  0  0  0  0  0  0  0  0  0  0  0
    4.6881    4.2716   22.4098 N   0  0  0  0  0  0  0  0  0  0  0  0
    5.0295    4.7300   23.1934 H   0  0  0  0  0  0  0  0  0  0  0  0
    0.9704    6.8673   23.5767 C   0  0  0  0  0  0  0  0  0  0  0  0
    0.9459    6.2604   24.7914 C   0  0  0  0  0  0  0  0  0  0  0  0
    2.0242    4.9184   24.5878 S   0  0  0  0  0  0  0  0  0  0  0  0
    2.4896    5.2037   22.8885 C   0  0  0  0  0  0  0  0  0  0  0  0
    1.7594    6.3443   22.5812 C   0  0  0  0  0  0  0  0  0  0  0  0
    1.8411    7.0757   21.0097 Cl  0  0  0  0  0  0  0  0  0  0  0  0
    0.1469    8.1041   23.3257 C   0  0  0  0  0  0  0  0  0  0  0  0
    0.7257   10.3539   22.3048 C   0  0  0  0  0  0  0  0  0  0  0  0
    1.0304    9.2697   23.2416 N   0  0  0  0  0  0  0  0  0  0  0  0
    2.1434    9.3459   24.0420 C   0  0  0  0  0  0  0  0  0  0  0  0
    2.0961    9.6950   25.2912 N   0  0  0  0  0  0  0  0  0  0  0  0
    3.4659    9.6554   25.8385 C   0  0  0  0  0  0  0  0  0  0  0  0
    4.2247    8.8516   24.7547 C   0  0  0  0  0  0  0  0  0  0  0  0
    3.3881    9.0712   23.6005 O   0  0  0  0  0  0  0  0  0  0  0  0
    6.5701    5.4617   20.6404 C   0  0  0  0  0  0  0  0  0  0  0  0
    5.5635    6.1384   20.5552 O   0  0  0  0  0  0  0  0  0  0  0  0
    7.7815    6.0505   20.6039 N   0  0  0  0  0  0  0  0  0  0  0  0
    8.5845    5.5060   20.5988 H   0  0  0  0  0  0  0  0  0  0  0  0
    7.8816    7.4405   20.5725 C   0  0  0  0  0  0  0  0  0  0  0  0
    8.1294    8.1391   21.7486 C   0  0  0  0  0  0  0  0  0  0  0  0
    8.2266    9.5183   21.7036 C   0  0  0  0  0  0  0  0  0  0  0  0
    8.0711   10.1541   20.4778 C   0  0  0  0  0  0  0  0  0  0  0  0
    7.8270    9.3957   19.3490 C   0  0  0  0  0  0  0  0  0  0  0  0
    7.7450    8.0805   19.4231 N   0  0  0  0  0  0  0  0  0  0  0  0
    8.1828   11.8833   20.3656 Cl  0  0  0  0  0  0  0  0  0  0  0  0
    4.5198    1.5114   22.6368 O   0  0  0  0  0  0  0  0  0  0  0  0
    3.6145    0.5538   22.0854 C   0  0  0  0  0  0  0  0  0  0  0  0
 19 20  1  0  0  0
 20 18  1  0  0  0
 20 21  1  0  0  0
 18 12  1  0  0  0
 12 13  2  0  0  0
 12 16  1  0  0  0
 13 14  1  0  0  0
 14 15  1  0  0  0
 15 16  2  0  0  0
 15  8  1  0  0  0
 16 17  1  0  0  0
  8  9  2  0  0  0
  8 10  1  0  0  0
 10  1  1  0  0  0
 10 11  1  0  0  0
  1  2  2  0  0  0
  1  6  1  0  0  0
  2  3  1  0  0  0
  2 26  1  0  0  0
  3  4  2  0  0  0
  4  5  1  0  0  0
  4  7  1  0  0  0
  5  6  2  0  0  0
  6 37  1  0  0  0
 37 38  1  0  0  0
 26 27  2  0  0  0
 26 28  1  0  0  0
 28 30  1  0  0  0
 28 29  1  0  0  0
 30 31  2  0  0  0
 30 35  1  0  0  0
 31 32  1  0  0  0
 32 33  2  0  0  0
 33 34  1  0  0  0
 33 36  1  0  0  0
 34 35  2  0  0  0
 21 22  2  0  0  0
 21 25  1  0  0  0
 22 23  1  0  0  0
 23 24  1  0  0  0
 24 25  1  0  0  0
M  END
> <minimizedAffinity>
-8.89038

$$$$
ZINC01493808


 38 41  0  0  0  0  0  0  0  0999 V2000
    5.4908    3.2801   21.8137 C   0  0  0  0  0  0  0  0  0  0  0  0
    6.6358    3.3270   21.0060 C   0  0  0  0  0  0  0  0  0  0  0  0
    7.3650    4.5162   20.9092 C   0  0  0  0  0  0  0  0  0  0  0  0
    6.9633    5.6312   21.6135 C   0  0  0  0  0  0  0  0  0  0  0  0
    5.8333    5.5831   22.4164 C   0  0  0  0  0  0  0  0  0  0  0  0
    5.0973    4.4152   22.5195 C   0  0  0  0  0  0  0  0  0  0  0  0
    7.8757    7.1025   21.4952 Cl  0  0  0  0  0  0  0  0  0  0  0  0
    3.6133    1.9583   21.2096 C   0  0  0  0  0  0  0  0  0  0  0  0
    3.1723    2.8939   20.5664 O   0  0  0  0  0  0  0  0  0  0  0  0
    4.7529    2.1018   21.9147 N   0  0  0  0  0  0  0  0  0  0  0  0
    5.0589    1.3851   22.4921 H   0  0  0  0  0  0  0  0  0  0  0  0
    1.7615   -1.2212   22.0149 C   0  0  0  0  0  0  0  0  0  0  0  0
    1.6822   -1.6429   20.7264 C   0  0  0  0  0  0  0  0  0  0  0  0
    2.4769   -0.3797   19.8444 S   0  0  0  0  0  0  0  0  0  0  0  0
    2.9042    0.6779   21.2171 C   0  0  0  0  0  0  0  0  0  0  0  0
    2.3882   -0.0310   22.2940 C   0  0  0  0  0  0  0  0  0  0  0  0
    2.5295    0.5608   23.9191 Cl  0  0  0  0  0  0  0  0  0  0  0  0
    1.1748   -2.0523   23.1265 C   0  0  0  0  0  0  0  0  0  0  0  0
    2.8670   -3.9024   22.7357 C   0  0  0  0  0  0  0  0  0  0  0  0
    2.1958   -2.9678   23.6423 N   0  0  0  0  0  0  0  0  0  0  0  0
    2.5240   -2.9484   24.9753 C   0  0  0  0  0  0  0  0  0  0  0  0
    2.0505   -2.0742   25.8097 N   0  0  0  0  0  0  0  0  0  0  0  0
    2.6037   -2.3594   27.1476 C   0  0  0  0  0  0  0  0  0  0  0  0
    3.1735   -3.7872   26.9650 C   0  0  0  0  0  0  0  0  0  0  0  0
    3.3740   -3.8324   25.5373 O   0  0  0  0  0  0  0  0  0  0  0  0
    7.0654    2.1313   20.2594 C   0  0  0  0  0  0  0  0  0  0  0  0
    6.6058    1.0413   20.5406 O   0  0  0  0  0  0  0  0  0  0  0  0
    7.9669    2.2449   19.2645 N   0  0  0  0  0  0  0  0  0  0  0  0
    8.3877    3.1010   19.0877 H   0  0  0  0  0  0  0  0  0  0  0  0
    8.2960    1.1334   18.4902 C   0  0  0  0  0  0  0  0  0  0  0  0
    9.5576    0.5615   18.6086 C   0  0  0  0  0  0  0  0  0  0  0  0
    9.8712   -0.5413   17.8346 C   0  0  0  0  0  0  0  0  0  0  0  0
    8.9076   -1.0359   16.9642 C   0  0  0  0  0  0  0  0  0  0  0  0
    7.6740   -0.4170   16.8989 C   0  0  0  0  0  0  0  0  0  0  0  0
    7.4026    0.6307   17.6544 N   0  0  0  0  0  0  0  0  0  0  0  0
    9.2497   -2.4173   15.9693 Cl  0  0  0  0  0  0  0  0  0  0  0  0
    3.9914    4.3761   23.3099 O   0  0  0  0  0  0  0  0  0  0  0  0
    3.0032    5.3845   23.0927 C   0  0  0  0  0  0  0  0  0  0  0  0
 19 20  1  0  0  0
 20 18  1  0  0  0
 20 21  1  0  0  0
 18 12  1  0  0  0
 12 13  2  0  0  0
 12 16  1  0  0  0
 13 14  1  0  0  0
 14 15  1  0  0  0
 15 16  2  0  0  0
 15  8  1  0  0  0
 16 17  1  0  0  0
  8  9  2  0  0  0
  8 10  1  0  0  0
 10  1  1  0  0  0
 10 11  1  0  0  0
  1  2  2  0  0  0
  1  6  1  0  0  0
  2  3  1  0  0  0
  2 26  1  0  0  0
  3  4  2  0  0  0
  4  5  1  0  0  0
  4  7  1  0  0  0
  5  6  2  0  0  0
  6 37  1  0  0  0
 37 38  1  0  0  0
 26 27  2  0  0  0
 26 28  1  0  0  0
 28 30  1  0  0  0
 28 29  1  0  0  0
 30 31  2  0  0  0
 30 35  1  0  0  0
 31 32  1  0  0  0
 32 33  2  0  0  0
 33 34  1  0  0  0
 33 36  1  0  0  0
 34 35  2  0  0  0
 21 22  2  0  0  0
 21 25  1  0  0  0
 22 23  1  0  0  0
 23 24  1  0  0  0
 24 25  1  0  0  0
M  END
> <minimizedAffinity>
-8.16739

$$$$
