ZINC00576547


 36 40  0  0  0  0  0  0  0  0999 V2000
    5.1054    4.7156   20.9757 C   0  0  0  0  0  0  0  0  0  0  0  0
    6.1414    5.6583   21.1000 C   0  0  0  0  0  0  0  0  0  0  0  0
    6.2489    6.3700   22.3060 C   0  0  0  0  0  0  0  0  0  0  0  0
    5.3745    6.1295   23.2778 N   0  0  0  0  0  0  0  0  0  0  0  0
    4.4198    5.2380   23.1163 C   0  0  0  0  0  0  0  0  0  0  0  0
    4.2825    4.5404   22.0034 N   0  0  0  0  0  0  0  0  0  0  0  0
    7.3256    7.2073   22.1564 N   0  0  0  0  0  0  0  0  0  0  0  0
    7.8359    6.9971   20.9099 C   0  0  0  0  0  0  0  0  0  0  0  0
    7.1401    6.0879   20.2917 N   0  0  0  0  0  0  0  0  0  0  0  0
    7.8339    8.1522   23.1537 C   0  0  0  0  0  0  0  0  0  0  0  0
    9.3001    8.5434   22.8375 C   0  0  0  0  0  0  0  0  0  0  0  0
    9.8312    8.9648   24.2289 C   0  0  0  0  0  0  0  0  0  0  0  0
    8.8664    8.2879   25.2217 C   0  0  0  0  0  0  0  0  0  0  0  0
    7.9255    7.5230   24.4501 O   0  0  0  0  0  0  0  0  0  0  0  0
    9.7823   10.3853   24.3739 O   0  0  0  0  0  0  0  0  0  0  0  0
    9.3497    9.6372   21.9195 O   0  0  0  0  0  0  0  0  0  0  0  0
   10.0488   10.7015   25.2478 H   0  0  0  0  0  0  0  0  0  0  0  0
   10.2456    9.9182   21.6913 H   0  0  0  0  0  0  0  0  0  0  0  0
    9.6471    7.3613   26.1566 C   0  0  0  0  0  0  0  0  0  0  0  0
    9.0949    7.4370   27.4723 O   0  0  0  0  0  0  0  0  0  0  0  0
    9.5420    6.8745   28.1193 H   0  0  0  0  0  0  0  0  0  0  0  0
    4.9495    3.9842   19.8106 N   0  0  0  0  0  0  0  0  0  0  0  0
    4.4736    4.6119   19.1940 H   0  0  0  0  0  0  0  0  0  0  0  0
    6.1234    3.4298   19.1322 C   0  0  0  0  0  0  0  0  0  0  0  0
    6.6282    2.2088   19.9036 C   0  0  0  0  0  0  0  0  0  0  0  0
    8.6275   -0.4456   17.2195 C   0  0  0  0  0  0  0  0  0  0  0  0
    7.3010   -0.1182   17.0082 C   0  0  0  0  0  0  0  0  0  0  0  0
    6.6532    0.7405   17.8768 C   0  0  0  0  0  0  0  0  0  0  0  0
    7.3328    1.2725   18.9570 C   0  0  0  0  0  0  0  0  0  0  0  0
    8.6611    0.9496   19.1650 C   0  0  0  0  0  0  0  0  0  0  0  0
    9.3063    0.0859   18.2994 C   0  0  0  0  0  0  0  0  0  0  0  0
    5.4616    1.4981   20.5384 C   0  0  0  0  0  0  0  0  0  0  0  0
    5.3927    1.0836   21.8161 C   0  0  0  0  0  0  0  0  0  0  0  0
    4.1283    0.4724   21.9819 C   0  0  0  0  0  0  0  0  0  0  0  0
    3.5027    0.5427   20.7926 C   0  0  0  0  0  0  0  0  0  0  0  0
    4.3151    1.1650   19.9216 O   0  0  0  0  0  0  0  0  0  0  0  0
 26 27  2  0  0  0
 26 31  1  0  0  0
 27 28  1  0  0  0
 28 29  2  0  0  0
 29 30  1  0  0  0
 29 25  1  0  0  0
 30 31  2  0  0  0
 25 24  1  0  0  0
 25 32  1  0  0  0
 24 22  1  0  0  0
 22  1  1  0  0  0
 22 23  1  0  0  0
  1  2  2  0  0  0
  1  6  1  0  0  0
  2  3  1  0  0  0
  2  9  1  0  0  0
  3  4  2  0  0  0
  3  7  1  0  0  0
  4  5  1  0  0  0
  5  6  2  0  0  0
  7  8  1  0  0  0
  7 10  1  0  0  0
  8  9  2  0  0  0
 10 11  1  0  0  0
 10 14  1  0  0  0
 11 12  1  0  0  0
 11 16  1  0  0  0
 12 13  1  0  0  0
 12 15  1  0  0  0
 13 14  1  0  0  0
 13 19  1  0  0  0
 19 20  1  0  0  0
 20 21  1  0  0  0
 15 17  1  0  0  0
 16 18  1  0  0  0
 32 33  2  0  0  0
 32 36  1  0  0  0
 33 34  1  0  0  0
 34 35  2  0  0  0
 35 36  1  0  0  0
M  END
> <minimizedAffinity>
-10.54112

$$$$
ZINC00576547


 36 40  0  0  0  0  0  0  0  0999 V2000
    5.1356    3.2365   22.0091 C   0  0  0  0  0  0  0  0  0  0  0  0
    6.1515    4.1194   21.6016 C   0  0  0  0  0  0  0  0  0  0  0  0
    6.0254    5.4766   21.9401 C   0  0  0  0  0  0  0  0  0  0  0  0
    4.9590    5.8744   22.6269 N   0  0  0  0  0  0  0  0  0  0  0  0
    4.0321    5.0120   22.9864 C   0  0  0  0  0  0  0  0  0  0  0  0
    4.1100    3.7259   22.6965 N   0  0  0  0  0  0  0  0  0  0  0  0
    7.1352    6.0991   21.4269 N   0  0  0  0  0  0  0  0  0  0  0  0
    7.8893    5.1457   20.8101 C   0  0  0  0  0  0  0  0  0  0  0  0
    7.3108    3.9848   20.9137 N   0  0  0  0  0  0  0  0  0  0  0  0
    7.4520    7.5260   21.5254 C   0  0  0  0  0  0  0  0  0  0  0  0
    8.7229    7.8609   20.7037 C   0  0  0  0  0  0  0  0  0  0  0  0
    9.2384    9.1386   21.4089 C   0  0  0  0  0  0  0  0  0  0  0  0
    8.5847    9.0894   22.8035 C   0  0  0  0  0  0  0  0  0  0  0  0
    7.8241    7.8721   22.8769 O   0  0  0  0  0  0  0  0  0  0  0  0
    8.8174   10.3057   20.7003 O   0  0  0  0  0  0  0  0  0  0  0  0
    8.3926    8.1287   19.3396 O   0  0  0  0  0  0  0  0  0  0  0  0
    9.0629   11.1367   21.1290 H   0  0  0  0  0  0  0  0  0  0  0  0
    9.1547    8.3436   18.7857 H   0  0  0  0  0  0  0  0  0  0  0  0
    9.6667    9.0925   23.8859 C   0  0  0  0  0  0  0  0  0  0  0  0
   10.9353    9.3712   23.2903 O   0  0  0  0  0  0  0  0  0  0  0  0
   11.6696    9.3883   23.9191 H   0  0  0  0  0  0  0  0  0  0  0  0
    5.2052    1.8879   21.7043 N   0  0  0  0  0  0  0  0  0  0  0  0
    4.3736    1.7171   21.1753 H   0  0  0  0  0  0  0  0  0  0  0  0
    6.3627    1.3608   20.9777 C   0  0  0  0  0  0  0  0  0  0  0  0
    5.9354    0.9517   19.5666 C   0  0  0  0  0  0  0  0  0  0  0  0
    9.3796   -0.1829   17.3088 C   0  0  0  0  0  0  0  0  0  0  0  0
    8.1142   -0.3973   16.7945 C   0  0  0  0  0  0  0  0  0  0  0  0
    6.9991   -0.0306   17.5250 C   0  0  0  0  0  0  0  0  0  0  0  0
    7.1497    0.5513   18.7702 C   0  0  0  0  0  0  0  0  0  0  0  0
    8.4153    0.7709   19.2819 C   0  0  0  0  0  0  0  0  0  0  0  0
    9.5298    0.3982   18.5535 C   0  0  0  0  0  0  0  0  0  0  0  0
    5.2522    2.1125   18.8923 C   0  0  0  0  0  0  0  0  0  0  0  0
    5.8343    2.9919   18.0575 C   0  0  0  0  0  0  0  0  0  0  0  0
    4.8317    3.9066   17.6603 C   0  0  0  0  0  0  0  0  0  0  0  0
    3.6977    3.5362   18.2830 C   0  0  0  0  0  0  0  0  0  0  0  0
    3.9582    2.4487   19.0282 O   0  0  0  0  0  0  0  0  0  0  0  0
 26 27  2  0  0  0
 26 31  1  0  0  0
 27 28  1  0  0  0
 28 29  2  0  0  0
 29 30  1  0  0  0
 29 25  1  0  0  0
 30 31  2  0  0  0
 25 24  1  0  0  0
 25 32  1  0  0  0
 24 22  1  0  0  0
 22  1  1  0  0  0
 22 23  1  0  0  0
  1  2  2  0  0  0
  1  6  1  0  0  0
  2  3  1  0  0  0
  2  9  1  0  0  0
  3  4  2  0  0  0
  3  7  1  0  0  0
  4  5  1  0  0  0
  5  6  2  0  0  0
  7  8  1  0  0  0
  7 10  1  0  0  0
  8  9  2  0  0  0
 10 11  1  0  0  0
 10 14  1  0  0  0
 11 12  1  0  0  0
 11 16  1  0  0  0
 12 13  1  0  0  0
 12 15  1  0  0  0
 13 14  1  0  0  0
 13 19  1  0  0  0
 19 20  1  0  0  0
 20 21  1  0  0  0
 15 17  1  0  0  0
 16 18  1  0  0  0
 32 33  2  0  0  0
 32 36  1  0  0  0
 33 34  1  0  0  0
 34 35  2  0  0  0
 35 36  1  0  0  0
M  END
> <minimizedAffinity>
-10.24724

$$$$
ZINC00576547


 36 40  0  0  0  0  0  0  0  0999 V2000
    6.4766    5.1523   20.7438 C   0  0  0  0  0  0  0  0  0  0  0  0
    5.3560    5.6204   21.4527 C   0  0  0  0  0  0  0  0  0  0  0  0
    5.4485    6.8686   22.0898 C   0  0  0  0  0  0  0  0  0  0  0  0
    6.5827    7.5562   22.0013 N   0  0  0  0  0  0  0  0  0  0  0  0
    7.6068    7.0777   21.3272 C   0  0  0  0  0  0  0  0  0  0  0  0
    7.5650    5.9125   20.7070 N   0  0  0  0  0  0  0  0  0  0  0  0
    4.2349    7.0748   22.6958 N   0  0  0  0  0  0  0  0  0  0  0  0
    3.4543    5.9905   22.4255 C   0  0  0  0  0  0  0  0  0  0  0  0
    4.1135    5.1383   21.6960 N   0  0  0  0  0  0  0  0  0  0  0  0
    3.8488    8.2461   23.4864 C   0  0  0  0  0  0  0  0  0  0  0  0
    4.4428    8.1597   24.9155 C   0  0  0  0  0  0  0  0  0  0  0  0
    3.4669    9.0455   25.7271 C   0  0  0  0  0  0  0  0  0  0  0  0
    2.1898    9.0867   24.8657 C   0  0  0  0  0  0  0  0  0  0  0  0
    2.4231    8.2580   23.7147 O   0  0  0  0  0  0  0  0  0  0  0  0
    4.0023   10.3600   25.8905 O   0  0  0  0  0  0  0  0  0  0  0  0
    5.7673    8.6948   24.9508 O   0  0  0  0  0  0  0  0  0  0  0  0
    3.4075   10.9744   26.3415 H   0  0  0  0  0  0  0  0  0  0  0  0
    6.1807    8.6631   25.8236 H   0  0  0  0  0  0  0  0  0  0  0  0
    1.0042    8.5428   25.6661 C   0  0  0  0  0  0  0  0  0  0  0  0
    0.3564    9.6186   26.3478 O   0  0  0  0  0  0  0  0  0  0  0  0
   -0.4058    9.3465   26.8770 H   0  0  0  0  0  0  0  0  0  0  0  0
    6.4445    3.9292   20.0960 N   0  0  0  0  0  0  0  0  0  0  0  0
    6.1302    4.1534   19.1732 H   0  0  0  0  0  0  0  0  0  0  0  0
    7.6580    3.1129   20.0135 C   0  0  0  0  0  0  0  0  0  0  0  0
    7.2935    1.6383   20.1970 C   0  0  0  0  0  0  0  0  0  0  0  0
    8.7742   -0.6171   16.8852 C   0  0  0  0  0  0  0  0  0  0  0  0
    7.4181   -0.3772   17.0075 C   0  0  0  0  0  0  0  0  0  0  0  0
    6.9382    0.3524   18.0794 C   0  0  0  0  0  0  0  0  0  0  0  0
    7.8153    0.8427   19.0291 C   0  0  0  0  0  0  0  0  0  0  0  0
    9.1720    0.6077   18.9037 C   0  0  0  0  0  0  0  0  0  0  0  0
    9.6504   -0.1274   17.8349 C   0  0  0  0  0  0  0  0  0  0  0  0
    5.7958    1.4968   20.2729 C   0  0  0  0  0  0  0  0  0  0  0  0
    5.1041    0.9949   21.3116 C   0  0  0  0  0  0  0  0  0  0  0  0
    3.7358    1.0512   20.9592 C   0  0  0  0  0  0  0  0  0  0  0  0
    3.6734    1.5770   19.7220 C   0  0  0  0  0  0  0  0  0  0  0  0
    4.9244    1.8450   19.3111 O   0  0  0  0  0  0  0  0  0  0  0  0
 26 27  2  0  0  0
 26 31  1  0  0  0
 27 28  1  0  0  0
 28 29  2  0  0  0
 29 30  1  0  0  0
 29 25  1  0  0  0
 30 31  2  0  0  0
 25 24  1  0  0  0
 25 32  1  0  0  0
 24 22  1  0  0  0
 22  1  1  0  0  0
 22 23  1  0  0  0
  1  2  2  0  0  0
  1  6  1  0  0  0
  2  3  1  0  0  0
  2  9  1  0  0  0
  3  4  2  0  0  0
  3  7  1  0  0  0
  4  5  1  0  0  0
  5  6  2  0  0  0
  7  8  1  0  0  0
  7 10  1  0  0  0
  8  9  2  0  0  0
 10 11  1  0  0  0
 10 14  1  0  0  0
 11 12  1  0  0  0
 11 16  1  0  0  0
 12 13  1  0  0  0
 12 15  1  0  0  0
 13 14  1  0  0  0
 13 19  1  0  0  0
 19 20  1  0  0  0
 20 21  1  0  0  0
 15 17  1  0  0  0
 16 18  1  0  0  0
 32 33  2  0  0  0
 32 36  1  0  0  0
 33 34  1  0  0  0
 34 35  2  0  0  0
 35 36  1  0  0  0
M  END
> <minimizedAffinity>
-10.03019

$$$$
