B2AR/3nya_JTZ.pdb
 OpenBabel03022313493D

 20 20  0  0  0  0  0  0  0  0999 V2000
   -3.1187    2.2408  -52.8796 C   0  0  0  0  0  0  0  0  0  0  0  0
   -2.3085    1.0122  -53.3240 C   0  0  1  0  0  0  0  0  0  0  0  0
   -2.6877   -0.1254  -52.5375 O   0  0  0  0  0  0  0  0  0  0  0  0
   -3.6390   -0.2688  -52.7010 H   0  0  0  0  0  0  0  0  0  0  0  0
   -2.4538    0.6556  -54.8218 C   0  0  0  0  0  0  0  0  0  0  0  0
   -3.7298    1.0813  -55.4163 N   0  0  0  0  0  0  0  0  0  0  0  0
   -4.4836    0.5239  -55.0132 H   0  0  0  0  0  0  0  0  0  0  0  0
   -4.1502    2.1769  -57.6340 C   0  0  0  0  0  0  0  0  0  0  0  0
   -3.7747    0.9006  -56.8776 C   0  0  0  0  0  0  0  0  0  0  0  0
   -4.8029   -0.1920  -57.1905 C   0  0  0  0  0  0  0  0  0  0  0  0
   -2.2484    3.3297  -52.5359 O   0  0  0  0  0  0  0  0  0  0  0  0
   -2.6209    4.0894  -51.4509 C   0  0  0  0  0  0  0  0  0  0  0  0
   -2.8339    3.5639  -50.1691 C   0  0  0  0  0  0  0  0  0  0  0  0
   -3.1367    4.3961  -49.0881 C   0  0  0  0  0  0  0  0  0  0  0  0
   -3.2112    5.7712  -49.2692 C   0  0  0  0  0  0  0  0  0  0  0  0
   -3.0157    6.3094  -50.5387 C   0  0  0  0  0  0  0  0  0  0  0  0
   -2.7467    5.4799  -51.6456 C   0  0  0  0  0  0  0  0  0  0  0  0
   -2.6500    6.1234  -53.0142 C   0  0  0  0  0  0  0  0  0  0  0  0
   -1.4130    6.9472  -53.2145 C   0  0  0  0  0  0  0  0  0  0  0  0
   -1.2549    7.8536  -54.1921 C   0  0  0  0  0  0  0  0  0  0  0  0
  1 11  1  0  0  0  0
  2  1  1  1  0  0  0
  2  3  1  0  0  0  0
  2  5  1  0  0  0  0
  3  4  1  0  0  0  0
  6  5  1  0  0  0  0
  6  7  1  0  0  0  0
  8  9  1  0  0  0  0
  9  6  1  0  0  0  0
  9 10  1  0  0  0  0
 11 12  1  0  0  0  0
 12 13  1  0  0  0  0
 12 17  2  0  0  0  0
 13 14  2  0  0  0  0
 14 15  1  0  0  0  0
 15 16  2  0  0  0  0
 16 17  1  0  0  0  0
 17 18  1  0  0  0  0
 18 19  1  0  0  0  0
 19 20  2  0  0  0  0
M  END
>  <minimizedAffinity>
-8.02493

$$$$
