B2AR/3nya_JTZ.pdb


 20 20  0  0  0  0  0  0  0  0999 V2000
   -2.7463    8.8557  -54.8255 C   0  0  0  0  0  0  0  0  0  0  0  0
   -2.4788    8.1649  -53.4784 C   0  0  0  0  0  0  0  0  0  0  0  0
   -3.0664    8.9316  -52.4186 O   0  0  0  0  0  0  0  0  0  0  0  0
   -4.0248    8.9630  -52.5996 H   0  0  0  0  0  0  0  0  0  0  0  0
   -2.9962    6.7102  -53.3897 C   0  0  0  0  0  0  0  0  0  0  0  0
   -3.6611    6.3889  -52.1179 N   0  0  0  0  0  0  0  0  0  0  0  0
   -4.0321    7.2492  -51.7132 H   0  0  0  0  0  0  0  0  0  0  0  0
   -2.5145    4.2919  -51.3544 C   0  0  0  0  0  0  0  0  0  0  0  0
   -2.7524    5.7865  -51.1273 C   0  0  0  0  0  0  0  0  0  0  0  0
   -3.3601    5.9946  -49.7358 C   0  0  0  0  0  0  0  0  0  0  0  0
   -4.1556    8.9379  -55.0865 O   0  0  0  0  0  0  0  0  0  0  0  0
   -4.7096   10.1970  -55.0545 C   0  0  0  0  0  0  0  0  0  0  0  0
   -5.3059   10.7562  -53.9160 C   0  0  0  0  0  0  0  0  0  0  0  0
   -5.7839   12.0694  -53.9218 C   0  0  0  0  0  0  0  0  0  0  0  0
   -5.6542   12.8511  -55.0625 C   0  0  0  0  0  0  0  0  0  0  0  0
   -5.0765   12.3073  -56.2071 C   0  0  0  0  0  0  0  0  0  0  0  0
   -4.6239   10.9730  -56.2283 C   0  0  0  0  0  0  0  0  0  0  0  0
   -4.1034   10.4155  -57.5378 C   0  0  0  0  0  0  0  0  0  0  0  0
   -5.1731    9.8700  -58.4362 C   0  0  0  0  0  0  0  0  0  0  0  0
   -5.4056    8.5623  -58.6321 C   0  0  0  0  0  0  0  0  0  0  0  0
  8  9  1  0  0  0
  9  6  1  0  0  0
  9 10  1  0  0  0
  6  5  1  0  0  0
  6  7  1  0  0  0
  2  1  1  0  0  0
  2  3  1  0  0  0
  2  5  1  0  0  0
  3  4  1  0  0  0
  1 11  1  0  0  0
 11 12  1  0  0  0
 12 13  1  0  0  0
 12 17  2  0  0  0
 13 14  2  0  0  0
 14 15  1  0  0  0
 15 16  2  0  0  0
 16 17  1  0  0  0
 17 18  1  0  0  0
 18 19  1  0  0  0
 19 20  2  0  0  0
M  END
> <minimizedAffinity>
-8.51277

$$$$
B2AR/3nya_JTZ.pdb


 20 20  0  0  0  0  0  0  0  0999 V2000
   -2.6507    5.4855  -49.7256 C   0  0  0  0  0  0  0  0  0  0  0  0
   -3.4290    6.2328  -50.8207 C   0  0  0  0  0  0  0  0  0  0  0  0
   -3.4585    7.6345  -50.5197 O   0  0  0  0  0  0  0  0  0  0  0  0
   -2.5293    7.9320  -50.5005 H   0  0  0  0  0  0  0  0  0  0  0  0
   -2.8704    6.0398  -52.2498 C   0  0  0  0  0  0  0  0  0  0  0  0
   -3.7017    6.6420  -53.3029 N   0  0  0  0  0  0  0  0  0  0  0  0
   -4.2399    5.9051  -53.7599 H   0  0  0  0  0  0  0  0  0  0  0  0
   -1.4832    7.6503  -53.8998 C   0  0  0  0  0  0  0  0  0  0  0  0
   -2.9122    7.3262  -54.3413 C   0  0  0  0  0  0  0  0  0  0  0  0
   -3.6342    8.6275  -54.7077 C   0  0  0  0  0  0  0  0  0  0  0  0
   -3.1122    4.1314  -49.6045 O   0  0  0  0  0  0  0  0  0  0  0  0
   -2.1506    3.1789  -49.3566 C   0  0  0  0  0  0  0  0  0  0  0  0
   -1.2100    3.2736  -48.3218 C   0  0  0  0  0  0  0  0  0  0  0  0
   -0.3055    2.2383  -48.0705 C   0  0  0  0  0  0  0  0  0  0  0  0
   -0.3418    1.0821  -48.8391 C   0  0  0  0  0  0  0  0  0  0  0  0
   -1.2608    0.9765  -49.8801 C   0  0  0  0  0  0  0  0  0  0  0  0
   -2.1540    2.0273  -50.1695 C   0  0  0  0  0  0  0  0  0  0  0  0
   -3.0535    1.8875  -51.3811 C   0  0  0  0  0  0  0  0  0  0  0  0
   -2.3209    1.9051  -52.6895 C   0  0  0  0  0  0  0  0  0  0  0  0
   -1.9794    0.8074  -53.3829 C   0  0  0  0  0  0  0  0  0  0  0  0
  8  9  1  0  0  0
  9  6  1  0  0  0
  9 10  1  0  0  0
  6  5  1  0  0  0
  6  7  1  0  0  0
  2  1  1  0  0  0
  2  3  1  0  0  0
  2  5  1  0  0  0
  3  4  1  0  0  0
  1 11  1  0  0  0
 11 12  1  0  0  0
 12 13  1  0  0  0
 12 17  2  0  0  0
 13 14  2  0  0  0
 14 15  1  0  0  0
 15 16  2  0  0  0
 16 17  1  0  0  0
 17 18  1  0  0  0
 18 19  1  0  0  0
 19 20  2  0  0  0
M  END
> <minimizedAffinity>
-8.26270

$$$$
B2AR/3nya_JTZ.pdb


 20 20  0  0  0  0  0  0  0  0999 V2000
   -3.1187    2.2408  -52.8796 C   0  0  0  0  0  0  0  0  0  0  0  0
   -2.3085    1.0122  -53.3240 C   0  0  0  0  0  0  0  0  0  0  0  0
   -2.6877   -0.1254  -52.5375 O   0  0  0  0  0  0  0  0  0  0  0  0
   -3.6390   -0.2688  -52.7010 H   0  0  0  0  0  0  0  0  0  0  0  0
   -2.4538    0.6556  -54.8218 C   0  0  0  0  0  0  0  0  0  0  0  0
   -3.7298    1.0813  -55.4163 N   0  0  0  0  0  0  0  0  0  0  0  0
   -4.4836    0.5239  -55.0132 H   0  0  0  0  0  0  0  0  0  0  0  0
   -4.1502    2.1769  -57.6340 C   0  0  0  0  0  0  0  0  0  0  0  0
   -3.7747    0.9006  -56.8776 C   0  0  0  0  0  0  0  0  0  0  0  0
   -4.8029   -0.1920  -57.1905 C   0  0  0  0  0  0  0  0  0  0  0  0
   -2.2484    3.3297  -52.5359 O   0  0  0  0  0  0  0  0  0  0  0  0
   -2.6209    4.0894  -51.4509 C   0  0  0  0  0  0  0  0  0  0  0  0
   -2.8339    3.5639  -50.1691 C   0  0  0  0  0  0  0  0  0  0  0  0
   -3.1367    4.3961  -49.0881 C   0  0  0  0  0  0  0  0  0  0  0  0
   -3.2112    5.7712  -49.2692 C   0  0  0  0  0  0  0  0  0  0  0  0
   -3.0157    6.3094  -50.5387 C   0  0  0  0  0  0  0  0  0  0  0  0
   -2.7467    5.4799  -51.6456 C   0  0  0  0  0  0  0  0  0  0  0  0
   -2.6500    6.1234  -53.0142 C   0  0  0  0  0  0  0  0  0  0  0  0
   -1.4130    6.9472  -53.2145 C   0  0  0  0  0  0  0  0  0  0  0  0
   -1.2549    7.8536  -54.1921 C   0  0  0  0  0  0  0  0  0  0  0  0
  8  9  1  0  0  0
  9  6  1  0  0  0
  9 10  1  0  0  0
  6  5  1  0  0  0
  6  7  1  0  0  0
  2  1  1  0  0  0
  2  3  1  0  0  0
  2  5  1  0  0  0
  3  4  1  0  0  0
  1 11  1  0  0  0
 11 12  1  0  0  0
 12 13  1  0  0  0
 12 17  2  0  0  0
 13 14  2  0  0  0
 14 15  1  0  0  0
 15 16  2  0  0  0
 16 17  1  0  0  0
 17 18  1  0  0  0
 18 19  1  0  0  0
 19 20  2  0  0  0
M  END
> <minimizedAffinity>
-8.02493

$$$$
