ADRB2_case/data/3nya_JTZ.pdb
 OpenBabel03092320063D

 20 20  0  0  0  0  0  0  0  0999 V2000
   -2.7686    8.8453  -54.8288 C   0  0  0  0  0  0  0  0  0  0  0  0
   -2.4786    8.1820  -53.4736 C   0  0  1  0  0  0  0  0  0  0  0  0
   -3.0757    8.9412  -52.4136 O   0  0  0  0  0  0  0  0  0  0  0  0
   -4.0394    8.8223  -52.4882 H   0  0  0  0  0  0  0  0  0  0  0  0
   -2.9490    6.7129  -53.3715 C   0  0  0  0  0  0  0  0  0  0  0  0
   -3.6486    6.3860  -52.1208 N   0  0  0  0  0  0  0  0  0  0  0  0
   -4.0720    7.2354  -51.7441 H   0  0  0  0  0  0  0  0  0  0  0  0
   -2.5191    4.3295  -51.2340 C   0  0  0  0  0  0  0  0  0  0  0  0
   -2.7505    5.8363  -51.0897 C   0  0  0  0  0  0  0  0  0  0  0  0
   -3.3597    6.1212  -49.7125 C   0  0  0  0  0  0  0  0  0  0  0  0
   -4.1824    8.9537  -55.0720 O   0  0  0  0  0  0  0  0  0  0  0  0
   -4.7041   10.2307  -55.0418 C   0  0  0  0  0  0  0  0  0  0  0  0
   -5.2813   10.8026  -53.8987 C   0  0  0  0  0  0  0  0  0  0  0  0
   -5.7420   12.1209  -53.9042 C   0  0  0  0  0  0  0  0  0  0  0  0
   -5.6141   12.8967  -55.0470 C   0  0  0  0  0  0  0  0  0  0  0  0
   -5.0462   12.3444  -56.1934 C   0  0  0  0  0  0  0  0  0  0  0  0
   -4.6023   11.0047  -56.2175 C   0  0  0  0  0  0  0  0  0  0  0  0
   -4.0872   10.4554  -57.5306 C   0  0  0  0  0  0  0  0  0  0  0  0
   -5.1640    9.9139  -58.4264 C   0  0  0  0  0  0  0  0  0  0  0  0
   -5.4143    8.6110  -58.6179 C   0  0  0  0  0  0  0  0  0  0  0  0
  1 11  1  0  0  0  0
  2  1  1  6  0  0  0
  2  3  1  0  0  0  0
  2  5  1  0  0  0  0
  3  4  1  0  0  0  0
  6  5  1  0  0  0  0
  6  7  1  0  0  0  0
  8  9  1  0  0  0  0
  9  6  1  0  0  0  0
  9 10  1  0  0  0  0
 11 12  1  0  0  0  0
 12 13  1  0  0  0  0
 12 17  2  0  0  0  0
 13 14  2  0  0  0  0
 14 15  1  0  0  0  0
 15 16  2  0  0  0  0
 16 17  1  0  0  0  0
 17 18  1  0  0  0  0
 18 19  1  0  0  0  0
 19 20  2  0  0  0  0
M  END
>  <minimizedAffinity>
-8.55942

$$$$
