ADRB2_case/data/3nya_JTZ.pdb
 OpenBabel03092320063D

 20 20  0  0  0  0  0  0  0  0999 V2000
   -3.0576    2.1979  -52.7738 C   0  0  0  0  0  0  0  0  0  0  0  0
   -2.2646    0.9612  -53.2237 C   0  0  1  0  0  0  0  0  0  0  0  0
   -2.6586   -0.1847  -52.4567 O   0  0  0  0  0  0  0  0  0  0  0  0
   -3.5614   -0.4171  -52.7383 H   0  0  0  0  0  0  0  0  0  0  0  0
   -2.3980    0.6336  -54.7286 C   0  0  0  0  0  0  0  0  0  0  0  0
   -3.5612    1.2500  -55.3823 N   0  0  0  0  0  0  0  0  0  0  0  0
   -4.4149    0.8743  -54.9667 H   0  0  0  0  0  0  0  0  0  0  0  0
   -4.1082    2.1802  -57.6466 C   0  0  0  0  0  0  0  0  0  0  0  0
   -3.6116    0.9832  -56.8309 C   0  0  0  0  0  0  0  0  0  0  0  0
   -4.5420   -0.2104  -57.0732 C   0  0  0  0  0  0  0  0  0  0  0  0
   -2.1858    3.2961  -52.4520 O   0  0  0  0  0  0  0  0  0  0  0  0
   -2.5833    4.0938  -51.3986 C   0  0  0  0  0  0  0  0  0  0  0  0
   -2.8151    3.6056  -50.1044 C   0  0  0  0  0  0  0  0  0  0  0  0
   -3.1593    4.4649  -49.0588 C   0  0  0  0  0  0  0  0  0  0  0  0
   -3.2570    5.8301  -49.2849 C   0  0  0  0  0  0  0  0  0  0  0  0
   -3.0335    6.3330  -50.5652 C   0  0  0  0  0  0  0  0  0  0  0  0
   -2.7146    5.4778  -51.6419 C   0  0  0  0  0  0  0  0  0  0  0  0
   -2.5829    6.0945  -53.0180 C   0  0  0  0  0  0  0  0  0  0  0  0
   -1.2802    6.8073  -53.2418 C   0  0  0  0  0  0  0  0  0  0  0  0
   -1.1500    7.9764  -53.8843 C   0  0  0  0  0  0  0  0  0  0  0  0
  1 11  1  0  0  0  0
  2  1  1  1  0  0  0
  2  3  1  0  0  0  0
  2  5  1  0  0  0  0
  3  4  1  0  0  0  0
  6  5  1  0  0  0  0
  6  7  1  0  0  0  0
  8  9  1  0  0  0  0
  9  6  1  0  0  0  0
  9 10  1  0  0  0  0
 11 12  1  0  0  0  0
 12 13  1  0  0  0  0
 12 17  2  0  0  0  0
 13 14  2  0  0  0  0
 14 15  1  0  0  0  0
 15 16  2  0  0  0  0
 16 17  1  0  0  0  0
 17 18  1  0  0  0  0
 18 19  1  0  0  0  0
 19 20  2  0  0  0  0
M  END
>  <minimizedAffinity>
-8.07524

$$$$
