data/CDK2/cocry_dataset/1aq1_STU_LIG.pdb


 36 43  0  0  0  0  0  0  0  0999 V2000
  -13.2876  203.6910  116.8974 O   0  0  0  0  0  0  0  0  0  0  0  0
  -12.2586  204.2058  117.7443 C   0  0  0  0  0  0  0  0  0  0  0  0
  -12.9757  204.8932  118.9553 C   0  0  0  0  0  0  0  0  0  0  0  0
  -14.2499  205.6964  118.5786 C   0  0  0  0  0  0  0  0  0  0  0  0
  -14.1544  206.1136  117.0934 C   0  0  0  0  0  0  0  0  0  0  0  0
  -14.0858  204.7216  116.2628 C   0  0  0  0  0  0  0  0  0  0  0  0
  -15.4875  204.0845  116.2443 C   0  0  0  0  0  0  0  0  0  0  0  0
  -13.5048  204.8532  114.9385 N   0  0  0  0  0  0  0  0  0  0  0  0
  -12.2110  205.1836  114.6864 C   0  0  0  0  0  0  0  0  0  0  0  0
  -11.2345  205.3388  115.6559 C   0  0  0  0  0  0  0  0  0  0  0  0
  -10.2306  206.2376  115.2511 C   0  0  0  0  0  0  0  0  0  0  0  0
   -9.9078  206.7924  114.0151 C   0  0  0  0  0  0  0  0  0  0  0  0
  -10.7562  206.4032  112.9794 C   0  0  0  0  0  0  0  0  0  0  0  0
  -11.8638  205.6456  113.4128 C   0  0  0  0  0  0  0  0  0  0  0  0
  -13.0643  205.4661  112.6997 C   0  0  0  0  0  0  0  0  0  0  0  0
  -14.0605  204.9789  113.6407 C   0  0  0  0  0  0  0  0  0  0  0  0
  -15.3699  204.7369  113.1742 C   0  0  0  0  0  0  0  0  0  0  0  0
  -15.7073  204.9746  111.8396 C   0  0  0  0  0  0  0  0  0  0  0  0
  -14.7666  205.4498  110.9448 C   0  0  0  0  0  0  0  0  0  0  0  0
  -13.4581  205.6989  111.3615 C   0  0  0  0  0  0  0  0  0  0  0  0
  -10.2484  207.0365  111.8412 C   0  0  0  0  0  0  0  0  0  0  0  0
   -9.2015  207.7537  112.1025 N   0  0  0  0  0  0  0  0  0  0  0  0
   -8.9086  207.6671  113.4773 C   0  0  0  0  0  0  0  0  0  0  0  0
   -7.9774  208.2536  114.0130 O   0  0  0  0  0  0  0  0  0  0  0  0
   -9.6630  206.5598  116.4808 C   0  0  0  0  0  0  0  0  0  0  0  0
  -10.0324  205.5040  117.3965 C   0  0  0  0  0  0  0  0  0  0  0  0
   -9.1594  205.2271  118.4581 C   0  0  0  0  0  0  0  0  0  0  0  0
   -8.1827  206.1896  118.7703 C   0  0  0  0  0  0  0  0  0  0  0  0
   -8.1466  207.4242  118.1274 C   0  0  0  0  0  0  0  0  0  0  0  0
   -8.8717  207.6133  116.9608 C   0  0  0  0  0  0  0  0  0  0  0  0
  -11.2535  204.9266  116.9679 N   0  0  0  0  0  0  0  0  0  0  0  0
  -14.6033  206.8301  119.4551 N   0  0  0  0  0  0  0  0  0  0  0  0
  -14.4806  206.6002  120.8830 C   0  0  0  0  0  0  0  0  0  0  0  0
  -14.0623  207.6572  119.2163 H   0  0  0  0  0  0  0  0  0  0  0  0
  -13.0258  206.9588  116.8105 O   0  0  0  0  0  0  0  0  0  0  0  0
  -13.1827  208.2467  116.2512 C   0  0  0  0  0  0  0  0  0  0  0  0
  1  2  1  0  0  0
  1  6  1  0  0  0
  2  3  1  0  0  0
  2 31  1  0  0  0
  3  4  1  0  0  0
  4  5  1  0  0  0
  4 32  1  0  0  0
  5  6  1  0  0  0
  5 35  1  0  0  0
  6  8  1  0  0  0
  6  7  1  0  0  0
  8  9  1  0  0  0
  8 16  1  0  0  0
  9 10  1  0  0  0
  9 14  2  0  0  0
 10 11  2  0  0  0
 10 31  1  0  0  0
 11 12  1  0  0  0
 11 25  1  0  0  0
 12 13  2  0  0  0
 12 23  1  0  0  0
 13 14  1  0  0  0
 13 21  1  0  0  0
 14 15  1  0  0  0
 15 16  1  0  0  0
 15 20  2  0  0  0
 16 17  2  0  0  0
 17 18  1  0  0  0
 18 19  2  0  0  0
 19 20  1  0  0  0
 21 22  2  0  0  0
 22 23  1  0  0  0
 23 24  2  0  0  0
 25 26  1  0  0  0
 25 30  2  0  0  0
 26 27  2  0  0  0
 26 31  1  0  0  0
 27 28  1  0  0  0
 28 29  2  0  0  0
 29 30  1  0  0  0
 35 36  1  0  0  0
 32 33  1  0  0  0
 32 34  1  0  0  0
M  END
> <minimizedAffinity>
-7.78678

$$$$
data/CDK2/cocry_dataset/1aq1_STU_LIG.pdb


 36 43  0  0  0  0  0  0  0  0999 V2000
  -10.2687  208.7205  115.8990 O   0  0  0  0  0  0  0  0  0  0  0  0
  -10.8389  208.3389  117.1522 C   0  0  0  0  0  0  0  0  0  0  0  0
   -9.6864  207.6889  117.9905 C   0  0  0  0  0  0  0  0  0  0  0  0
   -8.7328  206.7745  117.1749 C   0  0  0  0  0  0  0  0  0  0  0  0
   -9.4827  206.2629  115.9241 C   0  0  0  0  0  0  0  0  0  0  0  0
   -9.8629  207.5953  115.0799 C   0  0  0  0  0  0  0  0  0  0  0  0
   -8.5912  208.1302  114.3963 C   0  0  0  0  0  0  0  0  0  0  0  0
  -10.9693  207.4129  114.1571 N   0  0  0  0  0  0  0  0  0  0  0  0
  -12.2527  207.1568  114.5230 C   0  0  0  0  0  0  0  0  0  0  0  0
  -12.7104  207.1378  115.8298 C   0  0  0  0  0  0  0  0  0  0  0  0
  -13.8187  206.2853  115.9859 C   0  0  0  0  0  0  0  0  0  0  0  0
  -14.6680  205.6699  115.0696 C   0  0  0  0  0  0  0  0  0  0  0  0
  -14.3469  205.9260  113.7373 C   0  0  0  0  0  0  0  0  0  0  0  0
  -13.1375  206.6329  113.5750 C   0  0  0  0  0  0  0  0  0  0  0  0
  -12.3655  206.6781  112.3985 C   0  0  0  0  0  0  0  0  0  0  0  0
  -11.0426  207.1589  112.7647 C   0  0  0  0  0  0  0  0  0  0  0  0
  -10.0627  207.2759  111.7563 C   0  0  0  0  0  0  0  0  0  0  0  0
  -10.3519  206.9232  110.4358 C   0  0  0  0  0  0  0  0  0  0  0  0
  -11.6044  206.4537  110.0860 C   0  0  0  0  0  0  0  0  0  0  0  0
  -12.6054  206.3261  111.0500 C   0  0  0  0  0  0  0  0  0  0  0  0
  -15.3222  205.2522  112.9962 C   0  0  0  0  0  0  0  0  0  0  0  0
  -16.1715  204.6297  113.7511 N   0  0  0  0  0  0  0  0  0  0  0  0
  -15.8297  204.8317  115.1022 C   0  0  0  0  0  0  0  0  0  0  0  0
  -16.4505  204.3503  116.0407 O   0  0  0  0  0  0  0  0  0  0  0  0
  -13.8004  206.0896  117.3641 C   0  0  0  0  0  0  0  0  0  0  0  0
  -13.0332  207.1782  117.9265 C   0  0  0  0  0  0  0  0  0  0  0  0
  -13.3436  207.5884  119.2308 C   0  0  0  0  0  0  0  0  0  0  0  0
  -14.1154  206.7203  120.0237 C   0  0  0  0  0  0  0  0  0  0  0  0
  -14.4695  205.4496  119.5778 C   0  0  0  0  0  0  0  0  0  0  0  0
  -14.3352  205.1298  118.2355 C   0  0  0  0  0  0  0  0  0  0  0  0
  -12.1053  207.6379  116.9592 N   0  0  0  0  0  0  0  0  0  0  0  0
   -8.0681  205.6826  117.9127 N   0  0  0  0  0  0  0  0  0  0  0  0
   -8.7061  205.2596  119.1459 C   0  0  0  0  0  0  0  0  0  0  0  0
   -7.9439  204.8658  117.3200 H   0  0  0  0  0  0  0  0  0  0  0  0
  -10.6478  205.4809  116.2385 O   0  0  0  0  0  0  0  0  0  0  0  0
  -10.7624  204.1275  115.8498 C   0  0  0  0  0  0  0  0  0  0  0  0
  1  2  1  0  0  0
  1  6  1  0  0  0
  2  3  1  0  0  0
  2 31  1  0  0  0
  3  4  1  0  0  0
  4  5  1  0  0  0
  4 32  1  0  0  0
  5  6  1  0  0  0
  5 35  1  0  0  0
  6  8  1  0  0  0
  6  7  1  0  0  0
  8  9  1  0  0  0
  8 16  1  0  0  0
  9 10  1  0  0  0
  9 14  2  0  0  0
 10 11  2  0  0  0
 10 31  1  0  0  0
 11 12  1  0  0  0
 11 25  1  0  0  0
 12 13  2  0  0  0
 12 23  1  0  0  0
 13 14  1  0  0  0
 13 21  1  0  0  0
 14 15  1  0  0  0
 15 16  1  0  0  0
 15 20  2  0  0  0
 16 17  2  0  0  0
 17 18  1  0  0  0
 18 19  2  0  0  0
 19 20  1  0  0  0
 21 22  2  0  0  0
 22 23  1  0  0  0
 23 24  2  0  0  0
 25 26  1  0  0  0
 25 30  2  0  0  0
 26 27  2  0  0  0
 26 31  1  0  0  0
 27 28  1  0  0  0
 28 29  2  0  0  0
 29 30  1  0  0  0
 35 36  1  0  0  0
 32 33  1  0  0  0
 32 34  1  0  0  0
M  END
> <minimizedAffinity>
-7.40687

$$$$
data/CDK2/cocry_dataset/1aq1_STU_LIG.pdb


 36 43  0  0  0  0  0  0  0  0999 V2000
   -9.8543  208.3871  116.8546 O   0  0  0  0  0  0  0  0  0  0  0  0
  -11.2431  208.0779  116.9846 C   0  0  0  0  0  0  0  0  0  0  0  0
  -11.3684  207.0659  118.1735 C   0  0  0  0  0  0  0  0  0  0  0  0
  -10.2482  205.9922  118.2269 C   0  0  0  0  0  0  0  0  0  0  0  0
   -9.6611  205.8144  116.8083 C   0  0  0  0  0  0  0  0  0  0  0  0
   -9.0491  207.2645  116.4150 C   0  0  0  0  0  0  0  0  0  0  0  0
   -7.7377  207.4781  117.1932 C   0  0  0  0  0  0  0  0  0  0  0  0
   -8.9011  207.4741  114.9856 N   0  0  0  0  0  0  0  0  0  0  0  0
   -9.9298  207.5567  114.1014 C   0  0  0  0  0  0  0  0  0  0  0  0
  -11.2699  207.5587  114.4501 C   0  0  0  0  0  0  0  0  0  0  0  0
  -12.0804  207.0391  113.4241 C   0  0  0  0  0  0  0  0  0  0  0  0
  -11.8354  206.7622  112.0814 C   0  0  0  0  0  0  0  0  0  0  0  0
  -10.5278  207.0271  111.6767 C   0  0  0  0  0  0  0  0  0  0  0  0
   -9.6697  207.3798  112.7387 C   0  0  0  0  0  0  0  0  0  0  0  0
   -8.2641  207.3046  112.7168 C   0  0  0  0  0  0  0  0  0  0  0  0
   -7.8038  207.3658  114.0952 C   0  0  0  0  0  0  0  0  0  0  0  0
   -6.4182  207.2875  114.3494 C   0  0  0  0  0  0  0  0  0  0  0  0
   -5.5075  207.1390  113.3005 C   0  0  0  0  0  0  0  0  0  0  0  0
   -5.9418  207.0676  111.9898 C   0  0  0  0  0  0  0  0  0  0  0  0
   -7.3030  207.1453  111.6917 C   0  0  0  0  0  0  0  0  0  0  0  0
  -10.5028  206.7150  110.3141 C   0  0  0  0  0  0  0  0  0  0  0  0
  -11.6503  206.2940  109.8842 N   0  0  0  0  0  0  0  0  0  0  0  0
  -12.5709  206.2812  110.9497 C   0  0  0  0  0  0  0  0  0  0  0  0
  -13.7341  205.9165  110.8398 O   0  0  0  0  0  0  0  0  0  0  0  0
  -13.2354  206.7336  114.1388 C   0  0  0  0  0  0  0  0  0  0  0  0
  -13.1890  207.5152  115.3540 C   0  0  0  0  0  0  0  0  0  0  0  0
  -14.4089  207.8871  115.9365 C   0  0  0  0  0  0  0  0  0  0  0  0
  -15.5672  207.2065  115.5206 C   0  0  0  0  0  0  0  0  0  0  0  0
  -15.5008  206.1258  114.6450 C   0  0  0  0  0  0  0  0  0  0  0  0
  -14.3375  205.8926  113.9276 C   0  0  0  0  0  0  0  0  0  0  0  0
  -11.8359  207.7759  115.6847 N   0  0  0  0  0  0  0  0  0  0  0  0
  -10.5951  204.7016  118.8533 N   0  0  0  0  0  0  0  0  0  0  0  0
   -9.7861  204.3016  119.9900 C   0  0  0  0  0  0  0  0  0  0  0  0
  -11.5722  204.6841  119.1338 H   0  0  0  0  0  0  0  0  0  0  0  0
  -10.6283  205.3650  115.8437 O   0  0  0  0  0  0  0  0  0  0  0  0
  -11.1045  204.0349  115.8319 C   0  0  0  0  0  0  0  0  0  0  0  0
  1  2  1  0  0  0
  1  6  1  0  0  0
  2  3  1  0  0  0
  2 31  1  0  0  0
  3  4  1  0  0  0
  4  5  1  0  0  0
  4 32  1  0  0  0
  5  6  1  0  0  0
  5 35  1  0  0  0
  6  8  1  0  0  0
  6  7  1  0  0  0
  8  9  1  0  0  0
  8 16  1  0  0  0
  9 10  1  0  0  0
  9 14  2  0  0  0
 10 11  2  0  0  0
 10 31  1  0  0  0
 11 12  1  0  0  0
 11 25  1  0  0  0
 12 13  2  0  0  0
 12 23  1  0  0  0
 13 14  1  0  0  0
 13 21  1  0  0  0
 14 15  1  0  0  0
 15 16  1  0  0  0
 15 20  2  0  0  0
 16 17  2  0  0  0
 17 18  1  0  0  0
 18 19  2  0  0  0
 19 20  1  0  0  0
 21 22  2  0  0  0
 22 23  1  0  0  0
 23 24  2  0  0  0
 25 26  1  0  0  0
 25 30  2  0  0  0
 26 27  2  0  0  0
 26 31  1  0  0  0
 27 28  1  0  0  0
 28 29  2  0  0  0
 29 30  1  0  0  0
 35 36  1  0  0  0
 32 33  1  0  0  0
 32 34  1  0  0  0
M  END
> <minimizedAffinity>
-6.87609

$$$$
