data/CDK2/cocry_dataset/1aq1_STU_LIG.pdb
 OpenBabel03092321123D

 36 43  0  0  0  0  0  0  0  0999 V2000
  -13.2876  203.6910  116.8974 O   0  0  0  0  0  0  0  0  0  0  0  0
  -12.2586  204.2058  117.7443 C   0  0  2  0  0  0  0  0  0  0  0  0
  -12.9757  204.8932  118.9553 C   0  0  0  0  0  0  0  0  0  0  0  0
  -14.2499  205.6964  118.5786 C   0  0  2  0  0  0  0  0  0  0  0  0
  -14.1544  206.1136  117.0934 C   0  0  2  0  0  0  0  0  0  0  0  0
  -14.0858  204.7216  116.2628 C   0  0  2  0  0  0  0  0  0  0  0  0
  -15.4875  204.0845  116.2443 C   0  0  0  0  0  0  0  0  0  0  0  0
  -13.5048  204.8532  114.9385 N   0  0  0  0  0  0  0  0  0  0  0  0
  -12.2110  205.1836  114.6864 C   0  0  0  0  0  0  0  0  0  0  0  0
  -11.2345  205.3388  115.6559 C   0  0  0  0  0  0  0  0  0  0  0  0
  -10.2306  206.2376  115.2511 C   0  0  0  0  0  0  0  0  0  0  0  0
   -9.9078  206.7924  114.0151 C   0  0  0  0  0  0  0  0  0  0  0  0
  -10.7562  206.4032  112.9794 C   0  0  0  0  0  0  0  0  0  0  0  0
  -11.8638  205.6456  113.4128 C   0  0  0  0  0  0  0  0  0  0  0  0
  -13.0643  205.4661  112.6997 C   0  0  0  0  0  0  0  0  0  0  0  0
  -14.0605  204.9789  113.6407 C   0  0  0  0  0  0  0  0  0  0  0  0
  -15.3699  204.7369  113.1742 C   0  0  0  0  0  0  0  0  0  0  0  0
  -15.7073  204.9746  111.8396 C   0  0  0  0  0  0  0  0  0  0  0  0
  -14.7666  205.4498  110.9448 C   0  0  0  0  0  0  0  0  0  0  0  0
  -13.4581  205.6989  111.3615 C   0  0  0  0  0  0  0  0  0  0  0  0
  -10.2484  207.0365  111.8412 C   0  0  0  0  0  0  0  0  0  0  0  0
   -9.2015  207.7537  112.1025 N   0  0  0  0  0  0  0  0  0  0  0  0
   -8.9086  207.6671  113.4773 C   0  0  0  0  0  0  0  0  0  0  0  0
   -7.9774  208.2536  114.0130 O   0  0  0  0  0  0  0  0  0  0  0  0
   -9.6630  206.5598  116.4808 C   0  0  0  0  0  0  0  0  0  0  0  0
  -10.0324  205.5040  117.3965 C   0  0  0  0  0  0  0  0  0  0  0  0
   -9.1594  205.2271  118.4581 C   0  0  0  0  0  0  0  0  0  0  0  0
   -8.1827  206.1896  118.7703 C   0  0  0  0  0  0  0  0  0  0  0  0
   -8.1466  207.4242  118.1274 C   0  0  0  0  0  0  0  0  0  0  0  0
   -8.8717  207.6133  116.9608 C   0  0  0  0  0  0  0  0  0  0  0  0
  -11.2535  204.9266  116.9679 N   0  0  0  0  0  0  0  0  0  0  0  0
  -14.6033  206.8301  119.4551 N   0  0  0  0  0  0  0  0  0  0  0  0
  -14.4806  206.6002  120.8830 C   0  0  0  0  0  0  0  0  0  0  0  0
  -14.0623  207.6572  119.2163 H   0  0  0  0  0  0  0  0  0  0  0  0
  -13.0258  206.9588  116.8105 O   0  0  0  0  0  0  0  0  0  0  0  0
  -13.1827  208.2467  116.2512 C   0  0  0  0  0  0  0  0  0  0  0  0
  1  2  1  0  0  0  0
  1  6  1  0  0  0  0
  2  3  1  1  0  0  0
  2 31  1  0  0  0  0
  3  4  1  0  0  0  0
  4  5  1  0  0  0  0
  4 32  1  1  0  0  0
  5  6  1  0  0  0  0
  5 35  1  1  0  0  0
  6  8  1  0  0  0  0
  6  7  1  6  0  0  0
  8  9  1  0  0  0  0
  8 16  1  0  0  0  0
  9 10  1  0  0  0  0
  9 14  2  0  0  0  0
 10 11  2  0  0  0  0
 10 31  1  0  0  0  0
 11 12  1  0  0  0  0
 11 25  1  0  0  0  0
 12 13  2  0  0  0  0
 12 23  1  0  0  0  0
 13 14  1  0  0  0  0
 13 21  1  0  0  0  0
 14 15  1  0  0  0  0
 15 16  1  0  0  0  0
 15 20  2  0  0  0  0
 16 17  2  0  0  0  0
 17 18  1  0  0  0  0
 18 19  2  0  0  0  0
 19 20  1  0  0  0  0
 21 22  2  0  0  0  0
 22 23  1  0  0  0  0
 23 24  2  0  0  0  0
 25 26  1  0  0  0  0
 25 30  2  0  0  0  0
 26 27  2  0  0  0  0
 26 31  1  0  0  0  0
 27 28  1  0  0  0  0
 28 29  2  0  0  0  0
 29 30  1  0  0  0  0
 32 33  1  0  0  0  0
 32 34  1  0  0  0  0
 35 36  1  0  0  0  0
M  END
>  <minimizedAffinity>
-7.78678

$$$$
