data/CDK2/cocry_dataset/1b38_ATP_LIG.pdb
 OpenBabel03092321123D

 39 41  0  0  0  0  0  0  0  0999 V2000
  -10.9802  204.6815  116.8170 C   0  0  1  0  0  0  0  0  0  0  0  0
  -11.1156  204.2676  115.4316 O   0  0  0  0  0  0  0  0  0  0  0  0
  -10.6828  205.3513  114.5748 C   0  0  2  0  0  0  0  0  0  0  0  0
  -10.6034  206.6097  115.4364 C   0  0  1  0  0  0  0  0  0  0  0  0
  -10.2356  206.0193  116.7890 C   0  0  2  0  0  0  0  0  0  0  0  0
   -8.8047  205.8405  116.8157 O   0  0  0  0  0  0  0  0  0  0  0  0
   -9.6119  207.5284  114.9749 O   0  0  0  0  0  0  0  0  0  0  0  0
   -8.5822  204.9637  116.4511 H   0  0  0  0  0  0  0  0  0  0  0  0
   -8.8256  207.3974  115.5462 H   0  0  0  0  0  0  0  0  0  0  0  0
  -11.5601  205.4524  113.4278 N   0  0  0  0  0  0  0  0  0  0  0  0
  -12.7502  204.7883  113.2720 C   0  0  0  0  0  0  0  0  0  0  0  0
  -13.3200  205.0591  112.1149 N   0  0  0  0  0  0  0  0  0  0  0  0
  -12.4536  205.9385  111.4940 C   0  0  0  0  0  0  0  0  0  0  0  0
  -12.4832  206.5819  110.2459 C   0  0  0  0  0  0  0  0  0  0  0  0
  -13.5205  206.4299  109.3326 N   0  0  0  0  0  0  0  0  0  0  0  0
  -11.4411  207.3730  109.9009 N   0  0  0  0  0  0  0  0  0  0  0  0
  -10.4312  207.5242  110.7853 C   0  0  0  0  0  0  0  0  0  0  0  0
  -10.2936  206.9573  111.9994 N   0  0  0  0  0  0  0  0  0  0  0  0
  -11.3479  206.1810  112.2919 C   0  0  0  0  0  0  0  0  0  0  0  0
  -14.0636  205.5876  109.4836 H   0  0  0  0  0  0  0  0  0  0  0  0
  -13.2183  206.6319  108.3892 H   0  0  0  0  0  0  0  0  0  0  0  0
  -12.3587  204.7817  117.4996 C   0  0  0  0  0  0  0  0  0  0  0  0
  -13.3022  203.9639  116.8184 O   0  0  0  0  0  0  0  0  0  0  0  0
  -14.7705  204.5390  116.5028 P   0  0  1  0  0  0  0  0  0  0  0  0
  -15.5335  203.8865  115.4014 O   0  0  0  0  0  0  0  0  0  0  0  0
  -15.4860  204.3465  117.9235 O   0  0  0  0  0  0  0  0  0  0  0  0
  -15.9817  203.5081  117.9584 H   0  0  0  0  0  0  0  0  0  0  0  0
  -14.6713  206.1173  116.4333 O   0  0  0  0  0  0  0  0  0  0  0  0
  -15.0473  207.0726  115.2374 P   0  0  2  0  0  0  0  0  0  0  0  0
  -13.9286  207.3471  114.2817 O   0  0  0  0  0  0  0  0  0  0  0  0
  -15.4388  208.4175  116.0176 O   0  0  0  0  0  0  0  0  0  0  0  0
  -14.7956  209.1222  115.8355 H   0  0  0  0  0  0  0  0  0  0  0  0
  -16.4098  206.6145  114.5764 O   0  0  0  0  0  0  0  0  0  0  0  0
  -16.6361  206.1747  113.0766 P   0  0  0  0  0  0  0  0  0  0  0  0
  -18.0164  206.3454  112.5427 O   0  0  0  0  0  0  0  0  0  0  0  0
  -15.5455  206.9094  112.1759 O   0  0  0  0  0  0  0  0  0  0  0  0
  -16.1568  204.6540  112.9770 O   0  0  0  0  0  0  0  0  0  0  0  0
  -15.9700  207.4652  111.4964 H   0  0  0  0  0  0  0  0  0  0  0  0
  -16.9062  204.0447  112.8533 H   0  0  0  0  0  0  0  0  0  0  0  0
  1 22  1  6  0  0  0
  1  2  1  0  0  0  0
  1  5  1  0  0  0  0
  2  3  1  0  0  0  0
  3  4  1  0  0  0  0
  3 10  1  6  0  0  0
  4  5  1  0  0  0  0
  4  7  1  6  0  0  0
  5  6  1  6  0  0  0
  6  8  1  0  0  0  0
  7  9  1  0  0  0  0
 10 11  1  0  0  0  0
 10 19  1  0  0  0  0
 11 12  2  0  0  0  0
 12 13  1  0  0  0  0
 13 14  1  0  0  0  0
 13 19  2  0  0  0  0
 14 15  1  0  0  0  0
 14 16  2  0  0  0  0
 15 20  1  0  0  0  0
 15 21  1  0  0  0  0
 16 17  1  0  0  0  0
 17 18  2  0  0  0  0
 18 19  1  0  0  0  0
 23 22  1  0  0  0  0
 24 26  1  0  0  0  0
 24 23  1  0  0  0  0
 24 25  2  6  0  0  0
 24 28  1  0  0  0  0
 26 27  1  0  0  0  0
 29 30  2  6  0  0  0
 29 31  1  0  0  0  0
 29 28  1  0  0  0  0
 31 32  1  0  0  0  0
 33 29  1  0  0  0  0
 34 35  2  0  0  0  0
 34 36  1  0  0  0  0
 34 37  1  0  0  0  0
 34 33  1  0  0  0  0
 36 38  1  0  0  0  0
 37 39  1  0  0  0  0
M  END
>  <minimizedAffinity>
-7.50315

$$$$
