data/CDK2/cocry_dataset/1b38_ATP_LIG.pdb
 OpenBabel03092321123D

 39 41  0  0  0  0  0  0  0  0999 V2000
  -12.8739  204.7351  117.0111 C   0  0  1  0  0  0  0  0  0  0  0  0
  -12.1994  205.0541  115.7652 O   0  0  0  0  0  0  0  0  0  0  0  0
  -10.7766  205.1505  116.0145 C   0  0  2  0  0  0  0  0  0  0  0  0
  -10.5839  205.2410  117.5267 C   0  0  1  0  0  0  0  0  0  0  0  0
  -11.7684  204.4274  118.0250 C   0  0  2  0  0  0  0  0  0  0  0  0
  -11.3871  203.0366  118.0013 O   0  0  0  0  0  0  0  0  0  0  0  0
   -9.3418  204.6811  117.9557 O   0  0  0  0  0  0  0  0  0  0  0  0
  -11.5884  202.6618  117.1237 H   0  0  0  0  0  0  0  0  0  0  0  0
   -9.5448  203.7829  118.2930 H   0  0  0  0  0  0  0  0  0  0  0  0
  -10.2186  206.2540  115.2620 N   0  0  0  0  0  0  0  0  0  0  0  0
   -9.3894  207.2245  115.7641 C   0  0  0  0  0  0  0  0  0  0  0  0
   -9.0585  208.1141  114.8499 N   0  0  0  0  0  0  0  0  0  0  0  0
   -9.7080  207.6979  113.7035 C   0  0  0  0  0  0  0  0  0  0  0  0
   -9.7689  208.2202  112.4011 C   0  0  0  0  0  0  0  0  0  0  0  0
   -9.0923  209.3690  112.0065 N   0  0  0  0  0  0  0  0  0  0  0  0
  -10.5416  207.5898  111.4866 N   0  0  0  0  0  0  0  0  0  0  0  0
  -11.2005  206.4729  111.8652 C   0  0  0  0  0  0  0  0  0  0  0  0
  -11.2211  205.8872  113.0780 N   0  0  0  0  0  0  0  0  0  0  0  0
  -10.4449  206.5510  113.9479 C   0  0  0  0  0  0  0  0  0  0  0  0
   -8.8386  209.9683  112.7835 H   0  0  0  0  0  0  0  0  0  0  0  0
   -9.5285  209.8002  111.2028 H   0  0  0  0  0  0  0  0  0  0  0  0
  -13.7848  205.8958  117.4576 C   0  0  0  0  0  0  0  0  0  0  0  0
  -14.8872  206.0222  116.5678 O   0  0  0  0  0  0  0  0  0  0  0  0
  -14.9183  207.2314  115.5081 P   0  0  1  0  0  0  0  0  0  0  0  0
  -14.7613  208.6118  116.0474 O   0  0  0  0  0  0  0  0  0  0  0  0
  -13.7061  206.8234  114.5431 O   0  0  0  0  0  0  0  0  0  0  0  0
  -12.8801  207.2692  114.8059 H   0  0  0  0  0  0  0  0  0  0  0  0
  -16.1531  207.0031  114.5441 O   0  0  0  0  0  0  0  0  0  0  0  0
  -16.5659  205.6928  113.7717 P   0  0  2  0  0  0  0  0  0  0  0  0
  -18.0269  205.5819  113.4660 O   0  0  0  0  0  0  0  0  0  0  0  0
  -16.1424  204.5588  114.8231 O   0  0  0  0  0  0  0  0  0  0  0  0
  -16.9252  204.1032  115.1739 H   0  0  0  0  0  0  0  0  0  0  0  0
  -15.5942  205.4481  112.5473 O   0  0  0  0  0  0  0  0  0  0  0  0
  -14.5428  204.2805  112.3891 P   0  0  0  0  0  0  0  0  0  0  0  0
  -13.9074  204.1453  111.0483 O   0  0  0  0  0  0  0  0  0  0  0  0
  -13.4660  204.4230  113.5556 O   0  0  0  0  0  0  0  0  0  0  0  0
  -15.2954  202.9373  112.8151 O   0  0  0  0  0  0  0  0  0  0  0  0
  -12.5685  204.5349  113.1913 H   0  0  0  0  0  0  0  0  0  0  0  0
  -15.4624  202.3569  112.0513 H   0  0  0  0  0  0  0  0  0  0  0  0
  1 22  1  1  0  0  0
  1  2  1  0  0  0  0
  1  5  1  0  0  0  0
  2  3  1  0  0  0  0
  3  4  1  0  0  0  0
  3 10  1  6  0  0  0
  4  5  1  0  0  0  0
  4  7  1  6  0  0  0
  5  6  1  6  0  0  0
  6  8  1  0  0  0  0
  7  9  1  0  0  0  0
 10 11  1  0  0  0  0
 10 19  1  0  0  0  0
 11 12  2  0  0  0  0
 12 13  1  0  0  0  0
 13 14  1  0  0  0  0
 13 19  2  0  0  0  0
 14 15  1  0  0  0  0
 14 16  2  0  0  0  0
 15 20  1  0  0  0  0
 15 21  1  0  0  0  0
 16 17  1  0  0  0  0
 17 18  2  0  0  0  0
 18 19  1  0  0  0  0
 23 22  1  0  0  0  0
 24 26  1  0  0  0  0
 24 23  1  0  0  0  0
 24 25  2  1  0  0  0
 24 28  1  0  0  0  0
 26 27  1  0  0  0  0
 29 30  2  6  0  0  0
 29 31  1  0  0  0  0
 29 28  1  0  0  0  0
 31 32  1  0  0  0  0
 33 29  1  0  0  0  0
 34 35  2  0  0  0  0
 34 36  1  0  0  0  0
 34 37  1  0  0  0  0
 34 33  1  0  0  0  0
 36 38  1  0  0  0  0
 37 39  1  0  0  0  0
M  END
>  <minimizedAffinity>
-7.49140

$$$$
