data/CDK2/cocry_dataset/1b38_ATP_LIG.pdb
 OpenBabel03092321123D

 39 41  0  0  0  0  0  0  0  0999 V2000
   -8.0262  207.5278  115.1510 C   0  0  1  0  0  0  0  0  0  0  0  0
   -8.6683  206.4497  114.4200 O   0  0  0  0  0  0  0  0  0  0  0  0
   -9.2188  206.9806  113.1907 C   0  0  2  0  0  0  0  0  0  0  0  0
   -9.2299  208.5025  113.3160 C   0  0  1  0  0  0  0  0  0  0  0  0
   -8.0203  208.7346  114.2084 C   0  0  2  0  0  0  0  0  0  0  0  0
   -6.8501  208.7545  113.3655 O   0  0  0  0  0  0  0  0  0  0  0  0
   -9.0881  209.1576  112.0547 O   0  0  0  0  0  0  0  0  0  0  0  0
   -6.5115  207.8458  113.2619 H   0  0  0  0  0  0  0  0  0  0  0  0
   -8.1474  209.4261  111.9863 H   0  0  0  0  0  0  0  0  0  0  0  0
  -10.5104  206.3811  112.9305 N   0  0  0  0  0  0  0  0  0  0  0  0
  -11.1654  205.5051  113.7583 C   0  0  0  0  0  0  0  0  0  0  0  0
  -12.3138  205.1074  113.2487 N   0  0  0  0  0  0  0  0  0  0  0  0
  -12.4019  205.7568  112.0322 C   0  0  0  0  0  0  0  0  0  0  0  0
  -13.3705  205.7454  111.0152 C   0  0  0  0  0  0  0  0  0  0  0  0
  -14.5428  205.0010  111.0851 N   0  0  0  0  0  0  0  0  0  0  0  0
  -13.1456  206.4766  109.8991 N   0  0  0  0  0  0  0  0  0  0  0  0
  -12.0082  207.2020  109.8269 C   0  0  0  0  0  0  0  0  0  0  0  0
  -11.0130  207.2853  110.7307 N   0  0  0  0  0  0  0  0  0  0  0  0
  -11.2813  206.5408  111.8141 C   0  0  0  0  0  0  0  0  0  0  0  0
  -14.4876  204.2325  111.7436 H   0  0  0  0  0  0  0  0  0  0  0  0
  -14.9157  204.8067  110.1657 H   0  0  0  0  0  0  0  0  0  0  0  0
   -8.7623  207.8107  116.4755 C   0  0  0  0  0  0  0  0  0  0  0  0
   -9.9433  207.0223  116.5565 O   0  0  0  0  0  0  0  0  0  0  0  0
  -11.3306  207.7114  116.9886 P   0  0  1  0  0  0  0  0  0  0  0  0
  -11.7490  207.5627  118.4112 O   0  0  0  0  0  0  0  0  0  0  0  0
  -11.0448  209.2406  116.6047 O   0  0  0  0  0  0  0  0  0  0  0  0
  -10.7240  209.7440  117.3751 H   0  0  0  0  0  0  0  0  0  0  0  0
  -12.4209  207.3334  115.9050 O   0  0  0  0  0  0  0  0  0  0  0  0
  -13.9805  207.5531  115.9641 P   0  0  2  0  0  0  0  0  0  0  0  0
  -14.4979  208.6101  115.0393 O   0  0  0  0  0  0  0  0  0  0  0  0
  -14.1773  208.0179  117.4859 O   0  0  0  0  0  0  0  0  0  0  0  0
  -14.4612  208.9457  117.5299 H   0  0  0  0  0  0  0  0  0  0  0  0
  -14.7335  206.1632  115.8979 O   0  0  0  0  0  0  0  0  0  0  0  0
  -15.5855  205.6022  114.6924 P   0  0  0  0  0  0  0  0  0  0  0  0
  -16.9922  205.2218  115.0025 O   0  0  0  0  0  0  0  0  0  0  0  0
  -15.4934  206.6476  113.4928 O   0  0  0  0  0  0  0  0  0  0  0  0
  -14.7651  204.3663  114.0992 O   0  0  0  0  0  0  0  0  0  0  0  0
  -16.3782  206.9734  113.2443 H   0  0  0  0  0  0  0  0  0  0  0  0
  -15.2025  203.5168  114.2868 H   0  0  0  0  0  0  0  0  0  0  0  0
  1 22  1  1  0  0  0
  1  2  1  0  0  0  0
  1  5  1  0  0  0  0
  2  3  1  0  0  0  0
  3  4  1  0  0  0  0
  3 10  1  1  0  0  0
  4  5  1  0  0  0  0
  4  7  1  6  0  0  0
  5  6  1  6  0  0  0
  6  8  1  0  0  0  0
  7  9  1  0  0  0  0
 10 11  1  0  0  0  0
 10 19  1  0  0  0  0
 11 12  2  0  0  0  0
 12 13  1  0  0  0  0
 13 14  1  0  0  0  0
 13 19  2  0  0  0  0
 14 15  1  0  0  0  0
 14 16  2  0  0  0  0
 15 20  1  0  0  0  0
 15 21  1  0  0  0  0
 16 17  1  0  0  0  0
 17 18  2  0  0  0  0
 18 19  1  0  0  0  0
 23 22  1  0  0  0  0
 24 26  1  0  0  0  0
 24 23  1  0  0  0  0
 24 25  2  1  0  0  0
 24 28  1  0  0  0  0
 26 27  1  0  0  0  0
 29 30  2  6  0  0  0
 29 31  1  0  0  0  0
 29 28  1  0  0  0  0
 31 32  1  0  0  0  0
 33 29  1  0  0  0  0
 34 35  2  0  0  0  0
 34 36  1  0  0  0  0
 34 37  1  0  0  0  0
 34 33  1  0  0  0  0
 36 38  1  0  0  0  0
 37 39  1  0  0  0  0
M  END
>  <minimizedAffinity>
-7.58627

$$$$
