data/CDK2/cocry_dataset/1b39_ATP_LIG.pdb
 OpenBabel03092321123D

 39 41  0  0  0  0  0  0  0  0999 V2000
   -8.3120  207.6321  114.2064 C   0  0  1  0  0  0  0  0  0  0  0  0
   -9.0545  206.4195  113.9499 O   0  0  0  0  0  0  0  0  0  0  0  0
   -9.9109  206.6441  112.8153 C   0  0  2  0  0  0  0  0  0  0  0  0
  -10.0111  208.1515  112.5975 C   0  0  1  0  0  0  0  0  0  0  0  0
   -8.6404  208.6079  113.0679 C   0  0  2  0  0  0  0  0  0  0  0  0
   -7.7381  208.4879  111.9530 O   0  0  0  0  0  0  0  0  0  0  0  0
  -10.2375  208.4991  111.2310 O   0  0  0  0  0  0  0  0  0  0  0  0
   -7.1927  207.6876  112.0628 H   0  0  0  0  0  0  0  0  0  0  0  0
   -9.3593  208.7378  110.8628 H   0  0  0  0  0  0  0  0  0  0  0  0
  -11.1829  205.9863  113.0169 N   0  0  0  0  0  0  0  0  0  0  0  0
  -11.4832  205.2005  114.1030 C   0  0  0  0  0  0  0  0  0  0  0  0
  -12.6366  204.5838  113.9621 N   0  0  0  0  0  0  0  0  0  0  0  0
  -13.1076  204.9998  112.7370 C   0  0  0  0  0  0  0  0  0  0  0  0
  -14.2613  204.6640  112.0059 C   0  0  0  0  0  0  0  0  0  0  0  0
  -15.1680  203.7102  112.4303 N   0  0  0  0  0  0  0  0  0  0  0  0
  -14.4822  205.2891  110.8266 N   0  0  0  0  0  0  0  0  0  0  0  0
  -13.5616  206.1722  110.3865 C   0  0  0  0  0  0  0  0  0  0  0  0
  -12.3957  206.5327  110.9674 N   0  0  0  0  0  0  0  0  0  0  0  0
  -12.2370  205.9094  112.1502 C   0  0  0  0  0  0  0  0  0  0  0  0
  -15.1226  203.5040  113.4246 H   0  0  0  0  0  0  0  0  0  0  0  0
  -16.0763  203.7950  111.9960 H   0  0  0  0  0  0  0  0  0  0  0  0
   -8.6992  208.2181  115.5639 C   0  0  0  0  0  0  0  0  0  0  0  0
  -10.0578  208.6421  115.5868 O   0  0  0  0  0  0  0  0  0  0  0  0
  -11.1385  207.7495  116.6009 P   0  0  1  0  0  0  0  0  0  0  0  0
  -12.1057  206.9507  117.5086 O   0  0  0  0  0  0  0  0  0  0  0  0
  -11.0239  209.0161  117.6452 O   0  0  0  0  0  0  0  0  0  0  0  0
  -10.6465  208.7129  118.4889 H   0  0  0  0  0  0  0  0  0  0  0  0
  -12.4841  208.3455  115.6915 O   0  0  0  0  0  0  0  0  0  0  0  0
  -13.8871  207.3987  116.0493 P   0  0  2  0  0  0  0  0  0  0  0  0
  -14.7222  208.0950  114.9540 O   0  0  0  0  0  0  0  0  0  0  0  0
  -14.2840  208.3866  117.2988 O   0  0  0  0  0  0  0  0  0  0  0  0
  -14.9959  208.9571  116.9403 H   0  0  0  0  0  0  0  0  0  0  0  0
  -15.2901  206.4519  116.4072 O   0  0  0  0  0  0  0  0  0  0  0  0
  -15.0262  204.8755  116.3901 P   0  0  0  0  0  0  0  0  0  0  0  0
  -15.5517  204.0726  115.2604 O   0  0  0  0  0  0  0  0  0  0  0  0
  -13.4600  204.7132  116.6387 O   0  0  0  0  0  0  0  0  0  0  0  0
  -15.6074  204.3810  117.7917 O   0  0  0  0  0  0  0  0  0  0  0  0
  -13.1535  203.7910  116.6208 H   0  0  0  0  0  0  0  0  0  0  0  0
  -15.8072  203.4269  117.7875 H   0  0  0  0  0  0  0  0  0  0  0  0
  1 22  1  1  0  0  0
  1  2  1  0  0  0  0
  1  5  1  0  0  0  0
  2  3  1  0  0  0  0
  3  4  1  0  0  0  0
  3 10  1  1  0  0  0
  4  5  1  0  0  0  0
  4  7  1  6  0  0  0
  5  6  1  6  0  0  0
  6  8  1  0  0  0  0
  7  9  1  0  0  0  0
 10 11  1  0  0  0  0
 10 19  1  0  0  0  0
 11 12  2  0  0  0  0
 12 13  1  0  0  0  0
 13 14  1  0  0  0  0
 13 19  2  0  0  0  0
 14 15  1  0  0  0  0
 14 16  2  0  0  0  0
 15 20  1  0  0  0  0
 15 21  1  0  0  0  0
 16 17  1  0  0  0  0
 17 18  2  0  0  0  0
 18 19  1  0  0  0  0
 23 22  1  0  0  0  0
 24 26  1  0  0  0  0
 24 23  1  0  0  0  0
 24 25  2  1  0  0  0
 24 28  1  0  0  0  0
 26 27  1  0  0  0  0
 29 30  2  6  0  0  0
 29 31  1  0  0  0  0
 29 28  1  0  0  0  0
 31 32  1  0  0  0  0
 33 29  1  0  0  0  0
 34 35  2  0  0  0  0
 34 36  1  0  0  0  0
 34 37  1  0  0  0  0
 34 33  1  0  0  0  0
 36 38  1  0  0  0  0
 37 39  1  0  0  0  0
M  END
>  <minimizedAffinity>
-7.62265

$$$$
