data/CDK2/cocry_dataset/1b39_ATP_LIG.pdb
 OpenBabel03092321123D

 39 41  0  0  0  0  0  0  0  0999 V2000
  -15.4747  206.4313  115.1328 C   0  0  1  0  0  0  0  0  0  0  0  0
  -14.5293  206.9789  114.1873 O   0  0  0  0  0  0  0  0  0  0  0  0
  -14.2244  205.9651  113.2125 C   0  0  2  0  0  0  0  0  0  0  0  0
  -14.6736  204.6215  113.7807 C   0  0  1  0  0  0  0  0  0  0  0  0
  -15.8714  205.0415  114.6158 C   0  0  2  0  0  0  0  0  0  0  0  0
  -17.0159  205.0766  113.7438 O   0  0  0  0  0  0  0  0  0  0  0  0
  -15.0452  203.6881  112.7657 O   0  0  0  0  0  0  0  0  0  0  0  0
  -17.2166  206.0015  113.5104 H   0  0  0  0  0  0  0  0  0  0  0  0
  -16.0242  203.7281  112.7058 H   0  0  0  0  0  0  0  0  0  0  0  0
  -12.8232  206.0230  112.8593 N   0  0  0  0  0  0  0  0  0  0  0  0
  -11.7932  205.8670  113.7549 C   0  0  0  0  0  0  0  0  0  0  0  0
  -10.6243  206.1346  113.2141 N   0  0  0  0  0  0  0  0  0  0  0  0
  -10.9110  206.4654  111.9087 C   0  0  0  0  0  0  0  0  0  0  0  0
  -10.0977  206.8872  110.8416 C   0  0  0  0  0  0  0  0  0  0  0  0
   -8.7410  207.1179  110.9771 N   0  0  0  0  0  0  0  0  0  0  0  0
  -10.6730  207.0941  109.6347 N   0  0  0  0  0  0  0  0  0  0  0  0
  -12.0077  206.9294  109.5239 C   0  0  0  0  0  0  0  0  0  0  0  0
  -12.8959  206.5847  110.4825 N   0  0  0  0  0  0  0  0  0  0  0  0
  -12.2725  206.3592  111.6544 C   0  0  0  0  0  0  0  0  0  0  0  0
   -8.3199  206.6692  111.7861 H   0  0  0  0  0  0  0  0  0  0  0  0
   -8.2391  207.1017  110.1004 H   0  0  0  0  0  0  0  0  0  0  0  0
  -14.8485  206.3441  116.5243 C   0  0  0  0  0  0  0  0  0  0  0  0
  -15.2940  205.1919  117.2314 O   0  0  0  0  0  0  0  0  0  0  0  0
  -14.2721  204.6094  118.5000 P   0  0  1  0  0  0  0  0  0  0  0  0
  -13.3575  204.0880  119.6355 O   0  0  0  0  0  0  0  0  0  0  0  0
  -15.6609  204.3364  119.3394 O   0  0  0  0  0  0  0  0  0  0  0  0
  -15.6634  204.8700  120.1527 H   0  0  0  0  0  0  0  0  0  0  0  0
  -14.1871  203.0660  117.7229 O   0  0  0  0  0  0  0  0  0  0  0  0
  -15.5647  202.1191  118.1683 P   0  0  2  0  0  0  0  0  0  0  0  0
  -15.0400  200.8761  117.4187 O   0  0  0  0  0  0  0  0  0  0  0  0
  -16.4518  202.7625  116.9461 O   0  0  0  0  0  0  0  0  0  0  0  0
  -16.4423  202.0725  116.2501 H   0  0  0  0  0  0  0  0  0  0  0  0
  -16.9424  201.1721  118.6136 O   0  0  0  0  0  0  0  0  0  0  0  0
  -18.3378  201.9200  118.3932 P   0  0  0  0  0  0  0  0  0  0  0  0
  -18.9575  201.9000  117.0470 O   0  0  0  0  0  0  0  0  0  0  0  0
  -19.2842  201.3870  119.5600 O   0  0  0  0  0  0  0  0  0  0  0  0
  -18.0507  203.4081  118.8933 O   0  0  0  0  0  0  0  0  0  0  0  0
  -20.1881  201.7429  119.5254 H   0  0  0  0  0  0  0  0  0  0  0  0
  -18.6916  204.0455  118.5282 H   0  0  0  0  0  0  0  0  0  0  0  0
  1 22  1  1  0  0  0
  1  2  1  0  0  0  0
  1  5  1  0  0  0  0
  2  3  1  0  0  0  0
  3  4  1  0  0  0  0
  3 10  1  1  0  0  0
  4  5  1  0  0  0  0
  4  7  1  6  0  0  0
  5  6  1  6  0  0  0
  6  8  1  0  0  0  0
  7  9  1  0  0  0  0
 10 11  1  0  0  0  0
 10 19  1  0  0  0  0
 11 12  2  0  0  0  0
 12 13  1  0  0  0  0
 13 14  1  0  0  0  0
 13 19  2  0  0  0  0
 14 15  1  0  0  0  0
 14 16  2  0  0  0  0
 15 20  1  0  0  0  0
 15 21  1  0  0  0  0
 16 17  1  0  0  0  0
 17 18  2  0  0  0  0
 18 19  1  0  0  0  0
 23 22  1  0  0  0  0
 24 26  1  0  0  0  0
 24 23  1  0  0  0  0
 24 25  2  1  0  0  0
 24 28  1  0  0  0  0
 26 27  1  0  0  0  0
 29 30  2  6  0  0  0
 29 31  1  0  0  0  0
 29 28  1  0  0  0  0
 31 32  1  0  0  0  0
 33 29  1  0  0  0  0
 34 35  2  0  0  0  0
 34 36  1  0  0  0  0
 34 37  1  0  0  0  0
 34 33  1  0  0  0  0
 36 38  1  0  0  0  0
 37 39  1  0  0  0  0
M  END
>  <minimizedAffinity>
-7.65212

$$$$
