data/CDK2/cocry_dataset/1b39_ATP_LIG.pdb
 OpenBabel03092321123D

 39 41  0  0  0  0  0  0  0  0999 V2000
  -12.4479  205.0314  117.9847 C   0  0  1  0  0  0  0  0  0  0  0  0
  -12.1391  204.9108  116.5785 O   0  0  0  0  0  0  0  0  0  0  0  0
  -10.7082  204.8676  116.4308 C   0  0  2  0  0  0  0  0  0  0  0  0
  -10.0895  205.3763  117.7301 C   0  0  1  0  0  0  0  0  0  0  0  0
  -11.1203  204.9149  118.7465 C   0  0  2  0  0  0  0  0  0  0  0  0
  -10.7992  203.5579  119.1030 O   0  0  0  0  0  0  0  0  0  0  0  0
   -8.8061  204.8072  117.9916 O   0  0  0  0  0  0  0  0  0  0  0  0
  -11.4045  202.9499  118.6402 H   0  0  0  0  0  0  0  0  0  0  0  0
   -8.9593  204.0716  118.6234 H   0  0  0  0  0  0  0  0  0  0  0  0
  -10.3093  205.6059  115.2530 N   0  0  0  0  0  0  0  0  0  0  0  0
   -9.2512  206.4810  115.2109 C   0  0  0  0  0  0  0  0  0  0  0  0
   -9.2072  207.1480  114.0779 N   0  0  0  0  0  0  0  0  0  0  0  0
  -10.2764  206.6734  113.3516 C   0  0  0  0  0  0  0  0  0  0  0  0
  -10.7864  207.0193  112.0873 C   0  0  0  0  0  0  0  0  0  0  0  0
  -10.2665  208.0483  111.3238 N   0  0  0  0  0  0  0  0  0  0  0  0
  -11.8441  206.3260  111.6068 N   0  0  0  0  0  0  0  0  0  0  0  0
  -12.3877  205.3656  112.3834 C   0  0  0  0  0  0  0  0  0  0  0  0
  -12.0248  204.9839  113.6282 N   0  0  0  0  0  0  0  0  0  0  0  0
  -10.9511  205.6790  114.0485 C   0  0  0  0  0  0  0  0  0  0  0  0
   -9.3210  208.3208  111.5785 H   0  0  0  0  0  0  0  0  0  0  0  0
  -10.5023  207.9827  110.3435 H   0  0  0  0  0  0  0  0  0  0  0  0
  -13.1309  206.3690  118.2685 C   0  0  0  0  0  0  0  0  0  0  0  0
  -12.9956  207.2720  117.1766 O   0  0  0  0  0  0  0  0  0  0  0  0
  -14.4380  207.6714  116.3089 P   0  0  1  0  0  0  0  0  0  0  0  0
  -15.7289  208.0288  115.5322 O   0  0  0  0  0  0  0  0  0  0  0  0
  -13.6336  207.1671  114.9648 O   0  0  0  0  0  0  0  0  0  0  0  0
  -13.5493  207.9048  114.3364 H   0  0  0  0  0  0  0  0  0  0  0  0
  -15.1191  206.1394  116.7358 O   0  0  0  0  0  0  0  0  0  0  0  0
  -15.6232  205.3125  115.3023 P   0  0  2  0  0  0  0  0  0  0  0  0
  -16.4271  204.2671  116.1042 O   0  0  0  0  0  0  0  0  0  0  0  0
  -14.2017  204.4951  115.2261 O   0  0  0  0  0  0  0  0  0  0  0  0
  -14.4133  203.6069  115.5825 H   0  0  0  0  0  0  0  0  0  0  0  0
  -16.1273  204.4855  113.8688 O   0  0  0  0  0  0  0  0  0  0  0  0
  -16.8770  205.4227  112.8131 P   0  0  0  0  0  0  0  0  0  0  0  0
  -16.3612  205.4955  111.4255 O   0  0  0  0  0  0  0  0  0  0  0  0
  -18.4164  205.0229  112.9215 O   0  0  0  0  0  0  0  0  0  0  0  0
  -16.8861  206.8536  113.5197 O   0  0  0  0  0  0  0  0  0  0  0  0
  -18.9908  205.5023  112.3011 H   0  0  0  0  0  0  0  0  0  0  0  0
  -17.0156  207.5762  112.8783 H   0  0  0  0  0  0  0  0  0  0  0  0
  1 22  1  6  0  0  0
  1  2  1  0  0  0  0
  1  5  1  0  0  0  0
  2  3  1  0  0  0  0
  3  4  1  0  0  0  0
  3 10  1  6  0  0  0
  4  5  1  0  0  0  0
  4  7  1  1  0  0  0
  5  6  1  6  0  0  0
  6  8  1  0  0  0  0
  7  9  1  0  0  0  0
 10 11  1  0  0  0  0
 10 19  1  0  0  0  0
 11 12  2  0  0  0  0
 12 13  1  0  0  0  0
 13 14  1  0  0  0  0
 13 19  2  0  0  0  0
 14 15  1  0  0  0  0
 14 16  2  0  0  0  0
 15 20  1  0  0  0  0
 15 21  1  0  0  0  0
 16 17  1  0  0  0  0
 17 18  2  0  0  0  0
 18 19  1  0  0  0  0
 23 22  1  0  0  0  0
 24 26  1  0  0  0  0
 24 23  1  0  0  0  0
 24 25  2  1  0  0  0
 24 28  1  0  0  0  0
 26 27  1  0  0  0  0
 29 30  2  1  0  0  0
 29 31  1  0  0  0  0
 29 28  1  0  0  0  0
 31 32  1  0  0  0  0
 33 29  1  0  0  0  0
 34 35  2  0  0  0  0
 34 36  1  0  0  0  0
 34 37  1  0  0  0  0
 34 33  1  0  0  0  0
 36 38  1  0  0  0  0
 37 39  1  0  0  0  0
M  END
>  <minimizedAffinity>
-7.72085

$$$$
