data/CDK2/cocry_dataset/1b39_ATP_LIG.pdb


 39 41  0  0  0  0  0  0  0  0999 V2000
  -12.4479  205.0314  117.9847 C   0  0  0  0  0  0  0  0  0  0  0  0
  -12.1391  204.9108  116.5785 O   0  0  0  0  0  0  0  0  0  0  0  0
  -10.7082  204.8676  116.4308 C   0  0  0  0  0  0  0  0  0  0  0  0
  -10.0895  205.3763  117.7301 C   0  0  0  0  0  0  0  0  0  0  0  0
  -11.1203  204.9149  118.7465 C   0  0  0  0  0  0  0  0  0  0  0  0
  -10.7992  203.5579  119.1030 O   0  0  0  0  0  0  0  0  0  0  0  0
   -8.8061  204.8072  117.9916 O   0  0  0  0  0  0  0  0  0  0  0  0
  -11.4045  202.9499  118.6402 H   0  0  0  0  0  0  0  0  0  0  0  0
   -8.9593  204.0716  118.6234 H   0  0  0  0  0  0  0  0  0  0  0  0
  -10.3093  205.6059  115.2530 N   0  0  0  0  0  0  0  0  0  0  0  0
   -9.2512  206.4810  115.2109 C   0  0  0  0  0  0  0  0  0  0  0  0
   -9.2072  207.1480  114.0779 N   0  0  0  0  0  0  0  0  0  0  0  0
  -10.2764  206.6734  113.3516 C   0  0  0  0  0  0  0  0  0  0  0  0
  -10.7864  207.0193  112.0873 C   0  0  0  0  0  0  0  0  0  0  0  0
  -10.2665  208.0483  111.3238 N   0  0  0  0  0  0  0  0  0  0  0  0
  -11.8441  206.3260  111.6068 N   0  0  0  0  0  0  0  0  0  0  0  0
  -12.3877  205.3656  112.3834 C   0  0  0  0  0  0  0  0  0  0  0  0
  -12.0248  204.9839  113.6282 N   0  0  0  0  0  0  0  0  0  0  0  0
  -10.9511  205.6790  114.0485 C   0  0  0  0  0  0  0  0  0  0  0  0
   -9.3210  208.3208  111.5785 H   0  0  0  0  0  0  0  0  0  0  0  0
  -10.5023  207.9827  110.3435 H   0  0  0  0  0  0  0  0  0  0  0  0
  -13.1309  206.3690  118.2685 C   0  0  0  0  0  0  0  0  0  0  0  0
  -12.9956  207.2720  117.1766 O   0  0  0  0  0  0  0  0  0  0  0  0
  -14.4380  207.6714  116.3089 P   0  0  0  0  0  0  0  0  0  0  0  0
  -15.7289  208.0288  115.5322 O   0  0  0  0  0  0  0  0  0  0  0  0
  -13.6336  207.1671  114.9648 O   0  0  0  0  0  0  0  0  0  0  0  0
  -13.5493  207.9048  114.3364 H   0  0  0  0  0  0  0  0  0  0  0  0
  -15.1191  206.1394  116.7358 O   0  0  0  0  0  0  0  0  0  0  0  0
  -15.6232  205.3125  115.3023 P   0  0  0  0  0  0  0  0  0  0  0  0
  -16.4271  204.2671  116.1042 O   0  0  0  0  0  0  0  0  0  0  0  0
  -14.2017  204.4951  115.2261 O   0  0  0  0  0  0  0  0  0  0  0  0
  -14.4133  203.6069  115.5825 H   0  0  0  0  0  0  0  0  0  0  0  0
  -16.1273  204.4855  113.8688 O   0  0  0  0  0  0  0  0  0  0  0  0
  -16.8770  205.4227  112.8131 P   0  0  0  0  0  0  0  0  0  0  0  0
  -16.3612  205.4955  111.4255 O   0  0  0  0  0  0  0  0  0  0  0  0
  -18.4164  205.0229  112.9215 O   0  0  0  0  0  0  0  0  0  0  0  0
  -16.8861  206.8536  113.5197 O   0  0  0  0  0  0  0  0  0  0  0  0
  -18.9908  205.5023  112.3011 H   0  0  0  0  0  0  0  0  0  0  0  0
  -17.0156  207.5762  112.8783 H   0  0  0  0  0  0  0  0  0  0  0  0
 34 35  2  0  0  0
 34 36  1  0  0  0
 34 37  1  0  0  0
 34 33  1  0  0  0
 36 38  1  0  0  0
 37 39  1  0  0  0
 33 29  1  0  0  0
 29 30  2  0  0  0
 29 31  1  0  0  0
 29 28  1  0  0  0
 31 32  1  0  0  0
 24 26  1  0  0  0
 24 23  1  0  0  0
 24 25  2  0  0  0
 24 28  1  0  0  0
 26 27  1  0  0  0
 23 22  1  0  0  0
 22  1  1  0  0  0
  1  2  1  0  0  0
  1  5  1  0  0  0
  2  3  1  0  0  0
  3  4  1  0  0  0
  3 10  1  0  0  0
  4  5  1  0  0  0
  4  7  1  0  0  0
  5  6  1  0  0  0
  6  8  1  0  0  0
  7  9  1  0  0  0
 10 11  1  0  0  0
 10 19  1  0  0  0
 11 12  2  0  0  0
 12 13  1  0  0  0
 13 14  1  0  0  0
 13 19  2  0  0  0
 14 15  1  0  0  0
 14 16  2  0  0  0
 15 20  1  0  0  0
 15 21  1  0  0  0
 16 17  1  0  0  0
 17 18  2  0  0  0
 18 19  1  0  0  0
M  END
> <minimizedAffinity>
-7.72085

$$$$
data/CDK2/cocry_dataset/1b39_ATP_LIG.pdb


 39 41  0  0  0  0  0  0  0  0999 V2000
  -15.4747  206.4313  115.1328 C   0  0  0  0  0  0  0  0  0  0  0  0
  -14.5293  206.9789  114.1873 O   0  0  0  0  0  0  0  0  0  0  0  0
  -14.2244  205.9651  113.2125 C   0  0  0  0  0  0  0  0  0  0  0  0
  -14.6736  204.6215  113.7807 C   0  0  0  0  0  0  0  0  0  0  0  0
  -15.8714  205.0415  114.6158 C   0  0  0  0  0  0  0  0  0  0  0  0
  -17.0159  205.0766  113.7438 O   0  0  0  0  0  0  0  0  0  0  0  0
  -15.0452  203.6881  112.7657 O   0  0  0  0  0  0  0  0  0  0  0  0
  -17.2166  206.0015  113.5104 H   0  0  0  0  0  0  0  0  0  0  0  0
  -16.0242  203.7281  112.7058 H   0  0  0  0  0  0  0  0  0  0  0  0
  -12.8232  206.0230  112.8593 N   0  0  0  0  0  0  0  0  0  0  0  0
  -11.7932  205.8670  113.7549 C   0  0  0  0  0  0  0  0  0  0  0  0
  -10.6243  206.1346  113.2141 N   0  0  0  0  0  0  0  0  0  0  0  0
  -10.9110  206.4654  111.9087 C   0  0  0  0  0  0  0  0  0  0  0  0
  -10.0977  206.8872  110.8416 C   0  0  0  0  0  0  0  0  0  0  0  0
   -8.7410  207.1179  110.9771 N   0  0  0  0  0  0  0  0  0  0  0  0
  -10.6730  207.0941  109.6347 N   0  0  0  0  0  0  0  0  0  0  0  0
  -12.0077  206.9294  109.5239 C   0  0  0  0  0  0  0  0  0  0  0  0
  -12.8959  206.5847  110.4825 N   0  0  0  0  0  0  0  0  0  0  0  0
  -12.2725  206.3592  111.6544 C   0  0  0  0  0  0  0  0  0  0  0  0
   -8.3199  206.6692  111.7861 H   0  0  0  0  0  0  0  0  0  0  0  0
   -8.2391  207.1017  110.1004 H   0  0  0  0  0  0  0  0  0  0  0  0
  -14.8485  206.3441  116.5243 C   0  0  0  0  0  0  0  0  0  0  0  0
  -15.2940  205.1919  117.2314 O   0  0  0  0  0  0  0  0  0  0  0  0
  -14.2721  204.6094  118.5000 P   0  0  0  0  0  0  0  0  0  0  0  0
  -13.3575  204.0880  119.6355 O   0  0  0  0  0  0  0  0  0  0  0  0
  -15.6609  204.3364  119.3394 O   0  0  0  0  0  0  0  0  0  0  0  0
  -15.6634  204.8700  120.1527 H   0  0  0  0  0  0  0  0  0  0  0  0
  -14.1871  203.0660  117.7229 O   0  0  0  0  0  0  0  0  0  0  0  0
  -15.5647  202.1191  118.1683 P   0  0  0  0  0  0  0  0  0  0  0  0
  -15.0400  200.8761  117.4187 O   0  0  0  0  0  0  0  0  0  0  0  0
  -16.4518  202.7625  116.9461 O   0  0  0  0  0  0  0  0  0  0  0  0
  -16.4423  202.0725  116.2501 H   0  0  0  0  0  0  0  0  0  0  0  0
  -16.9424  201.1721  118.6136 O   0  0  0  0  0  0  0  0  0  0  0  0
  -18.3378  201.9200  118.3932 P   0  0  0  0  0  0  0  0  0  0  0  0
  -18.9575  201.9000  117.0470 O   0  0  0  0  0  0  0  0  0  0  0  0
  -19.2842  201.3870  119.5600 O   0  0  0  0  0  0  0  0  0  0  0  0
  -18.0507  203.4081  118.8933 O   0  0  0  0  0  0  0  0  0  0  0  0
  -20.1881  201.7429  119.5254 H   0  0  0  0  0  0  0  0  0  0  0  0
  -18.6916  204.0455  118.5282 H   0  0  0  0  0  0  0  0  0  0  0  0
 34 35  2  0  0  0
 34 36  1  0  0  0
 34 37  1  0  0  0
 34 33  1  0  0  0
 36 38  1  0  0  0
 37 39  1  0  0  0
 33 29  1  0  0  0
 29 30  2  0  0  0
 29 31  1  0  0  0
 29 28  1  0  0  0
 31 32  1  0  0  0
 24 26  1  0  0  0
 24 23  1  0  0  0
 24 25  2  0  0  0
 24 28  1  0  0  0
 26 27  1  0  0  0
 23 22  1  0  0  0
 22  1  1  0  0  0
  1  2  1  0  0  0
  1  5  1  0  0  0
  2  3  1  0  0  0
  3  4  1  0  0  0
  3 10  1  0  0  0
  4  5  1  0  0  0
  4  7  1  0  0  0
  5  6  1  0  0  0
  6  8  1  0  0  0
  7  9  1  0  0  0
 10 11  1  0  0  0
 10 19  1  0  0  0
 11 12  2  0  0  0
 12 13  1  0  0  0
 13 14  1  0  0  0
 13 19  2  0  0  0
 14 15  1  0  0  0
 14 16  2  0  0  0
 15 20  1  0  0  0
 15 21  1  0  0  0
 16 17  1  0  0  0
 17 18  2  0  0  0
 18 19  1  0  0  0
M  END
> <minimizedAffinity>
-7.65212

$$$$
data/CDK2/cocry_dataset/1b39_ATP_LIG.pdb


 39 41  0  0  0  0  0  0  0  0999 V2000
   -8.3120  207.6321  114.2064 C   0  0  0  0  0  0  0  0  0  0  0  0
   -9.0545  206.4195  113.9499 O   0  0  0  0  0  0  0  0  0  0  0  0
   -9.9109  206.6441  112.8153 C   0  0  0  0  0  0  0  0  0  0  0  0
  -10.0111  208.1515  112.5975 C   0  0  0  0  0  0  0  0  0  0  0  0
   -8.6404  208.6079  113.0679 C   0  0  0  0  0  0  0  0  0  0  0  0
   -7.7381  208.4879  111.9530 O   0  0  0  0  0  0  0  0  0  0  0  0
  -10.2375  208.4991  111.2310 O   0  0  0  0  0  0  0  0  0  0  0  0
   -7.1927  207.6876  112.0628 H   0  0  0  0  0  0  0  0  0  0  0  0
   -9.3593  208.7378  110.8628 H   0  0  0  0  0  0  0  0  0  0  0  0
  -11.1829  205.9863  113.0169 N   0  0  0  0  0  0  0  0  0  0  0  0
  -11.4832  205.2005  114.1030 C   0  0  0  0  0  0  0  0  0  0  0  0
  -12.6366  204.5838  113.9621 N   0  0  0  0  0  0  0  0  0  0  0  0
  -13.1076  204.9998  112.7370 C   0  0  0  0  0  0  0  0  0  0  0  0
  -14.2613  204.6640  112.0059 C   0  0  0  0  0  0  0  0  0  0  0  0
  -15.1680  203.7102  112.4303 N   0  0  0  0  0  0  0  0  0  0  0  0
  -14.4822  205.2891  110.8266 N   0  0  0  0  0  0  0  0  0  0  0  0
  -13.5616  206.1722  110.3865 C   0  0  0  0  0  0  0  0  0  0  0  0
  -12.3957  206.5327  110.9674 N   0  0  0  0  0  0  0  0  0  0  0  0
  -12.2370  205.9094  112.1502 C   0  0  0  0  0  0  0  0  0  0  0  0
  -15.1226  203.5040  113.4246 H   0  0  0  0  0  0  0  0  0  0  0  0
  -16.0763  203.7950  111.9960 H   0  0  0  0  0  0  0  0  0  0  0  0
   -8.6992  208.2181  115.5639 C   0  0  0  0  0  0  0  0  0  0  0  0
  -10.0578  208.6421  115.5868 O   0  0  0  0  0  0  0  0  0  0  0  0
  -11.1385  207.7495  116.6009 P   0  0  0  0  0  0  0  0  0  0  0  0
  -12.1057  206.9507  117.5086 O   0  0  0  0  0  0  0  0  0  0  0  0
  -11.0239  209.0161  117.6452 O   0  0  0  0  0  0  0  0  0  0  0  0
  -10.6465  208.7129  118.4889 H   0  0  0  0  0  0  0  0  0  0  0  0
  -12.4841  208.3455  115.6915 O   0  0  0  0  0  0  0  0  0  0  0  0
  -13.8871  207.3987  116.0493 P   0  0  0  0  0  0  0  0  0  0  0  0
  -14.7222  208.0950  114.9540 O   0  0  0  0  0  0  0  0  0  0  0  0
  -14.2840  208.3866  117.2988 O   0  0  0  0  0  0  0  0  0  0  0  0
  -14.9959  208.9571  116.9403 H   0  0  0  0  0  0  0  0  0  0  0  0
  -15.2901  206.4519  116.4072 O   0  0  0  0  0  0  0  0  0  0  0  0
  -15.0262  204.8755  116.3901 P   0  0  0  0  0  0  0  0  0  0  0  0
  -15.5517  204.0726  115.2604 O   0  0  0  0  0  0  0  0  0  0  0  0
  -13.4600  204.7132  116.6387 O   0  0  0  0  0  0  0  0  0  0  0  0
  -15.6074  204.3810  117.7917 O   0  0  0  0  0  0  0  0  0  0  0  0
  -13.1535  203.7910  116.6208 H   0  0  0  0  0  0  0  0  0  0  0  0
  -15.8072  203.4269  117.7875 H   0  0  0  0  0  0  0  0  0  0  0  0
 34 35  2  0  0  0
 34 36  1  0  0  0
 34 37  1  0  0  0
 34 33  1  0  0  0
 36 38  1  0  0  0
 37 39  1  0  0  0
 33 29  1  0  0  0
 29 30  2  0  0  0
 29 31  1  0  0  0
 29 28  1  0  0  0
 31 32  1  0  0  0
 24 26  1  0  0  0
 24 23  1  0  0  0
 24 25  2  0  0  0
 24 28  1  0  0  0
 26 27  1  0  0  0
 23 22  1  0  0  0
 22  1  1  0  0  0
  1  2  1  0  0  0
  1  5  1  0  0  0
  2  3  1  0  0  0
  3  4  1  0  0  0
  3 10  1  0  0  0
  4  5  1  0  0  0
  4  7  1  0  0  0
  5  6  1  0  0  0
  6  8  1  0  0  0
  7  9  1  0  0  0
 10 11  1  0  0  0
 10 19  1  0  0  0
 11 12  2  0  0  0
 12 13  1  0  0  0
 13 14  1  0  0  0
 13 19  2  0  0  0
 14 15  1  0  0  0
 14 16  2  0  0  0
 15 20  1  0  0  0
 15 21  1  0  0  0
 16 17  1  0  0  0
 17 18  2  0  0  0
 18 19  1  0  0  0
M  END
> <minimizedAffinity>
-7.62265

$$$$
