data/CDK2/cocry_dataset/1ckp_PVB_LIG.pdb
 OpenBabel03092321123D

 19 21  0  0  0  0  0  0  0  0999 V2000
  -12.5369  206.7093  109.8787 N   0  0  0  0  0  0  0  0  0  0  0  0
  -11.3683  207.3705  109.9595 C   0  0  0  0  0  0  0  0  0  0  0  0
  -10.4959  207.3790  110.9789 N   0  0  0  0  0  0  0  0  0  0  0  0
  -10.9201  206.5954  111.9820 C   0  0  0  0  0  0  0  0  0  0  0  0
  -10.3072  206.3775  113.1813 N   0  0  0  0  0  0  0  0  0  0  0  0
   -9.0694  206.9626  113.6231 C   0  0  0  0  0  0  0  0  0  0  0  0
  -11.0913  205.5169  113.9012 C   0  0  0  0  0  0  0  0  0  0  0  0
  -12.1746  205.1659  113.2370 N   0  0  0  0  0  0  0  0  0  0  0  0
  -12.0857  205.8438  112.0346 C   0  0  0  0  0  0  0  0  0  0  0  0
  -12.9395  205.9267  110.9217 C   0  0  0  0  0  0  0  0  0  0  0  0
  -14.1562  205.2291  110.8485 N   0  0  0  0  0  0  0  0  0  0  0  0
  -14.0862  204.3261  110.3923 H   0  0  0  0  0  0  0  0  0  0  0  0
  -15.3067  205.4525  111.6247 C   0  0  0  0  0  0  0  0  0  0  0  0
  -15.4693  204.7815  112.8431 C   0  0  0  0  0  0  0  0  0  0  0  0
  -16.6554  204.9066  113.5767 C   0  0  0  0  0  0  0  0  0  0  0  0
  -17.6872  205.7205  113.1078 C   0  0  0  0  0  0  0  0  0  0  0  0
  -17.5257  206.4082  111.9101 C   0  0  0  0  0  0  0  0  0  0  0  0
  -18.7845  207.4243  111.3241 Cl  0  0  0  0  0  0  0  0  0  0  0  0
  -16.3507  206.2715  111.1736 C   0  0  0  0  0  0  0  0  0  0  0  0
  1  2  1  0  0  0  0
  1 10  2  0  0  0  0
  2  3  2  0  0  0  0
  3  4  1  0  0  0  0
  4  5  1  0  0  0  0
  4  9  2  0  0  0  0
  5  6  1  0  0  0  0
  5  7  1  0  0  0  0
  7  8  2  0  0  0  0
  8  9  1  0  0  0  0
  9 10  1  0  0  0  0
 10 11  1  0  0  0  0
 11 13  1  0  0  0  0
 11 12  1  0  0  0  0
 13 14  1  0  0  0  0
 13 19  2  0  0  0  0
 14 15  2  0  0  0  0
 15 16  1  0  0  0  0
 16 17  2  0  0  0  0
 17 18  1  0  0  0  0
 17 19  1  0  0  0  0
M  END
>  <minimizedAffinity>
-7.17756

$$$$
