data/CDK2/cocry_dataset/1di8_DTQ_LIG.pdb
 OpenBabel03092321123D

 24 26  0  0  0  0  0  0  0  0999 V2000
  -12.8307  204.6152  114.9831 N   0  0  0  0  0  0  0  0  0  0  0  0
  -11.8066  205.0370  115.7230 C   0  0  0  0  0  0  0  0  0  0  0  0
  -10.7314  205.6781  115.2645 N   0  0  0  0  0  0  0  0  0  0  0  0
  -10.7051  205.9575  113.9596 C   0  0  0  0  0  0  0  0  0  0  0  0
  -11.7251  205.6046  113.0724 C   0  0  0  0  0  0  0  0  0  0  0  0
  -12.7786  204.8752  113.6607 C   0  0  0  0  0  0  0  0  0  0  0  0
  -11.6422  206.0487  111.7219 C   0  0  0  0  0  0  0  0  0  0  0  0
  -10.5622  206.8264  111.2608 C   0  0  0  0  0  0  0  0  0  0  0  0
   -9.5248  207.1272  112.1458 C   0  0  0  0  0  0  0  0  0  0  0  0
   -9.6280  206.6771  113.4719 C   0  0  0  0  0  0  0  0  0  0  0  0
  -13.8246  204.3618  112.8388 N   0  0  0  0  0  0  0  0  0  0  0  0
  -14.0109  203.4052  113.1226 H   0  0  0  0  0  0  0  0  0  0  0  0
  -15.0215  205.0650  112.5504 C   0  0  0  0  0  0  0  0  0  0  0  0
  -16.2199  204.7262  113.1943 C   0  0  0  0  0  0  0  0  0  0  0  0
  -17.3998  205.3959  112.8832 C   0  0  0  0  0  0  0  0  0  0  0  0
  -17.4110  206.4197  111.9461 C   0  0  0  0  0  0  0  0  0  0  0  0
  -16.2237  206.7818  111.3123 C   0  0  0  0  0  0  0  0  0  0  0  0
  -15.0332  206.1124  111.6184 C   0  0  0  0  0  0  0  0  0  0  0  0
  -18.5798  205.0605  113.4806 O   0  0  0  0  0  0  0  0  0  0  0  0
  -18.4245  204.2722  114.0273 H   0  0  0  0  0  0  0  0  0  0  0  0
   -8.4000  207.8828  111.9934 O   0  0  0  0  0  0  0  0  0  0  0  0
   -7.1741  207.5047  112.5775 C   0  0  0  0  0  0  0  0  0  0  0  0
  -10.7644  207.4571  110.0616 O   0  0  0  0  0  0  0  0  0  0  0  0
  -12.0580  207.3028  109.4873 C   0  0  0  0  0  0  0  0  0  0  0  0
  1  2  1  0  0  0  0
  1  6  2  0  0  0  0
  2  3  2  0  0  0  0
  3  4  1  0  0  0  0
  4  5  1  0  0  0  0
  4 10  2  0  0  0  0
  5  6  1  0  0  0  0
  5  7  2  0  0  0  0
  6 11  1  0  0  0  0
  7  8  1  0  0  0  0
  8  9  2  0  0  0  0
  8 23  1  0  0  0  0
  9 10  1  0  0  0  0
  9 21  1  0  0  0  0
 11 13  1  0  0  0  0
 11 12  1  0  0  0  0
 13 14  1  0  0  0  0
 13 18  2  0  0  0  0
 14 15  2  0  0  0  0
 15 16  1  0  0  0  0
 15 19  1  0  0  0  0
 16 17  2  0  0  0  0
 17 18  1  0  0  0  0
 19 20  1  0  0  0  0
 21 22  1  0  0  0  0
 23 24  1  0  0  0  0
M  END
>  <minimizedAffinity>
-8.42704

$$$$
