data/CDK2/cocry_dataset/1di8_DTQ_LIG.pdb
 OpenBabel03092321123D

 24 26  0  0  0  0  0  0  0  0999 V2000
  -11.5711  206.8488  110.3945 N   0  0  0  0  0  0  0  0  0  0  0  0
  -12.6350  206.9863  109.6049 C   0  0  0  0  0  0  0  0  0  0  0  0
  -13.8559  206.5161  109.8607 N   0  0  0  0  0  0  0  0  0  0  0  0
  -14.0317  205.8944  111.0286 C   0  0  0  0  0  0  0  0  0  0  0  0
  -13.0132  205.7082  111.9667 C   0  0  0  0  0  0  0  0  0  0  0  0
  -11.7531  206.1911  111.5579 C   0  0  0  0  0  0  0  0  0  0  0  0
  -13.3390  205.1271  113.2253 C   0  0  0  0  0  0  0  0  0  0  0  0
  -14.6535  204.7343  113.5439 C   0  0  0  0  0  0  0  0  0  0  0  0
  -15.6508  204.8786  112.5772 C   0  0  0  0  0  0  0  0  0  0  0  0
  -15.3052  205.4526  111.3431 C   0  0  0  0  0  0  0  0  0  0  0  0
  -10.6106  205.9620  112.3798 N   0  0  0  0  0  0  0  0  0  0  0  0
   -9.9757  205.3499  111.8774 H   0  0  0  0  0  0  0  0  0  0  0  0
   -9.9143  206.9864  113.0697 C   0  0  0  0  0  0  0  0  0  0  0  0
  -10.2920  207.3547  114.3686 C   0  0  0  0  0  0  0  0  0  0  0  0
   -9.6282  208.3844  115.0295 C   0  0  0  0  0  0  0  0  0  0  0  0
   -8.5724  209.0530  114.4256 C   0  0  0  0  0  0  0  0  0  0  0  0
   -8.1718  208.6847  113.1425 C   0  0  0  0  0  0  0  0  0  0  0  0
   -8.8351  207.6514  112.4706 C   0  0  0  0  0  0  0  0  0  0  0  0
  -10.0006  208.7735  116.2831 O   0  0  0  0  0  0  0  0  0  0  0  0
  -10.8055  208.2836  116.5213 H   0  0  0  0  0  0  0  0  0  0  0  0
  -16.9911  204.6314  112.6202 O   0  0  0  0  0  0  0  0  0  0  0  0
  -17.9314  205.6793  112.6902 C   0  0  0  0  0  0  0  0  0  0  0  0
  -14.8913  204.5083  114.8739 O   0  0  0  0  0  0  0  0  0  0  0  0
  -15.3134  205.6374  115.6316 C   0  0  0  0  0  0  0  0  0  0  0  0
  1  2  1  0  0  0  0
  1  6  2  0  0  0  0
  2  3  2  0  0  0  0
  3  4  1  0  0  0  0
  4  5  1  0  0  0  0
  4 10  2  0  0  0  0
  5  6  1  0  0  0  0
  5  7  2  0  0  0  0
  6 11  1  0  0  0  0
  7  8  1  0  0  0  0
  8  9  2  0  0  0  0
  8 23  1  0  0  0  0
  9 10  1  0  0  0  0
  9 21  1  0  0  0  0
 11 13  1  0  0  0  0
 11 12  1  0  0  0  0
 13 14  1  0  0  0  0
 13 18  2  0  0  0  0
 14 15  2  0  0  0  0
 15 16  1  0  0  0  0
 15 19  1  0  0  0  0
 16 17  2  0  0  0  0
 17 18  1  0  0  0  0
 19 20  1  0  0  0  0
 21 22  1  0  0  0  0
 23 24  1  0  0  0  0
M  END
>  <minimizedAffinity>
-8.30371

$$$$
