data/CDK2/cocry_dataset/1dm2_HMD_LIG.pdb
 OpenBabel03092321123D

 23 25  0  0  0  0  0  0  0  0999 V2000
  -15.6149  204.6716  112.4785 Br  0  0  0  0  0  0  0  0  0  0  0  0
  -16.3269  205.6204  114.0092 C   0  0  2  0  0  0  0  0  0  0  0  0
  -15.8430  207.0071  114.1711 N   0  0  0  0  0  0  0  0  0  0  0  0
  -15.2608  206.9639  115.3440 C   0  0  0  0  0  0  0  0  0  0  0  0
  -14.9473  205.6328  115.8728 C   0  0  0  0  0  0  0  0  0  0  0  0
  -15.8550  204.8898  115.2289 C   0  0  0  0  0  0  0  0  0  0  0  0
  -13.5176  205.3962  116.0350 C   0  0  0  0  0  0  0  0  0  0  0  0
  -12.6412  205.3018  115.0094 C   0  0  0  0  0  0  0  0  0  0  0  0
  -12.8082  205.4953  113.6617 N   0  0  0  0  0  0  0  0  0  0  0  0
  -11.5860  205.4263  113.0645 C   0  0  0  0  0  0  0  0  0  0  0  0
  -10.6113  205.1324  113.8557 N   0  0  0  0  0  0  0  0  0  0  0  0
  -11.1561  205.0142  115.1332 C   0  0  0  0  0  0  0  0  0  0  0  0
  -10.5723  204.7085  116.1582 O   0  0  0  0  0  0  0  0  0  0  0  0
  -11.5317  205.6479  111.7429 N   0  0  0  0  0  0  0  0  0  0  0  0
  -13.1543  205.5755  117.4802 C   0  0  0  0  0  0  0  0  0  0  0  0
  -13.9507  206.7238  118.1552 C   0  0  0  0  0  0  0  0  0  0  0  0
  -14.1232  207.9553  117.3694 N   0  0  0  0  0  0  0  0  0  0  0  0
  -14.8418  208.1577  116.1946 C   0  0  0  0  0  0  0  0  0  0  0  0
  -15.1941  209.2844  115.8692 O   0  0  0  0  0  0  0  0  0  0  0  0
  -13.5487  206.0925  113.3107 H   0  0  0  0  0  0  0  0  0  0  0  0
  -12.3272  205.3171  111.2043 H   0  0  0  0  0  0  0  0  0  0  0  0
  -10.6530  205.3289  111.3422 H   0  0  0  0  0  0  0  0  0  0  0  0
  -14.0358  208.8239  117.8862 H   0  0  0  0  0  0  0  0  0  0  0  0
  2  3  1  0  0  0  0
  2  6  1  0  0  0  0
  2  1  1  6  0  0  0
  3  4  2  0  0  0  0
  4  5  1  0  0  0  0
  4 18  1  0  0  0  0
  5  6  2  0  0  0  0
  5  7  1  0  0  0  0
  7  8  2  0  0  0  0
  7 15  1  0  0  0  0
  8  9  1  0  0  0  0
  8 12  1  0  0  0  0
  9 10  1  0  0  0  0
  9 20  1  0  0  0  0
 10 11  2  0  0  0  0
 10 14  1  0  0  0  0
 11 12  1  0  0  0  0
 12 13  2  0  0  0  0
 14 21  1  0  0  0  0
 14 22  1  0  0  0  0
 15 16  1  0  0  0  0
 16 17  1  0  0  0  0
 17 18  1  0  0  0  0
 17 23  1  0  0  0  0
 18 19  2  0  0  0  0
M  END
>  <minimizedAffinity>
-4.64227

$$$$
