data/CDK2/cocry_dataset/1dm2_HMD_LIG.pdb
 OpenBabel03092321123D

 23 25  0  0  0  0  0  0  0  0999 V2000
  -14.0219  205.2624  111.3579 Br  0  0  0  0  0  0  0  0  0  0  0  0
  -14.7669  205.6226  113.1088 C   0  0  2  0  0  0  0  0  0  0  0  0
  -14.7475  207.0413  113.5214 N   0  0  0  0  0  0  0  0  0  0  0  0
  -14.0137  207.0061  114.6061 C   0  0  0  0  0  0  0  0  0  0  0  0
  -13.2037  205.8013  114.8120 C   0  0  0  0  0  0  0  0  0  0  0  0
  -13.9026  204.9080  114.1020 C   0  0  0  0  0  0  0  0  0  0  0  0
  -11.7686  206.0597  114.8017 C   0  0  0  0  0  0  0  0  0  0  0  0
  -11.0753  206.4571  113.7106 C   0  0  0  0  0  0  0  0  0  0  0  0
  -11.4980  206.8069  112.4535 N   0  0  0  0  0  0  0  0  0  0  0  0
  -10.4261  207.2763  111.7565 C   0  0  0  0  0  0  0  0  0  0  0  0
   -9.3014  207.2140  112.3838 N   0  0  0  0  0  0  0  0  0  0  0  0
   -9.5777  206.6946  113.6475 C   0  0  0  0  0  0  0  0  0  0  0  0
   -8.7782  206.4438  114.5323 O   0  0  0  0  0  0  0  0  0  0  0  0
  -10.6477  207.7255  110.5124 N   0  0  0  0  0  0  0  0  0  0  0  0
  -11.2710  206.1054  116.2169 C   0  0  0  0  0  0  0  0  0  0  0  0
  -12.2892  206.7658  117.1840 C   0  0  0  0  0  0  0  0  0  0  0  0
  -12.9738  207.9725  116.6951 N   0  0  0  0  0  0  0  0  0  0  0  0
  -13.8875  208.1065  115.6536 C   0  0  0  0  0  0  0  0  0  0  0  0
  -14.6357  209.0747  115.6055 O   0  0  0  0  0  0  0  0  0  0  0  0
  -12.4377  207.1555  112.2998 H   0  0  0  0  0  0  0  0  0  0  0  0
  -11.3618  207.2329  109.9833 H   0  0  0  0  0  0  0  0  0  0  0  0
   -9.7841  207.8102  109.9819 H   0  0  0  0  0  0  0  0  0  0  0  0
  -13.1001  208.7141  117.3757 H   0  0  0  0  0  0  0  0  0  0  0  0
  2  3  1  0  0  0  0
  2  6  1  0  0  0  0
  2  1  1  6  0  0  0
  3  4  2  0  0  0  0
  4  5  1  0  0  0  0
  4 18  1  0  0  0  0
  5  6  2  0  0  0  0
  5  7  1  0  0  0  0
  7  8  2  0  0  0  0
  7 15  1  0  0  0  0
  8  9  1  0  0  0  0
  8 12  1  0  0  0  0
  9 10  1  0  0  0  0
  9 20  1  0  0  0  0
 10 11  2  0  0  0  0
 10 14  1  0  0  0  0
 11 12  1  0  0  0  0
 12 13  2  0  0  0  0
 14 21  1  0  0  0  0
 14 22  1  0  0  0  0
 15 16  1  0  0  0  0
 16 17  1  0  0  0  0
 17 18  1  0  0  0  0
 17 23  1  0  0  0  0
 18 19  2  0  0  0  0
M  END
>  <minimizedAffinity>
-4.64835

$$$$
