data/CDK2/cocry_dataset/1dm2_HMD_LIG.pdb


 23 25  0  0  0  0  0  0  0  0999 V2000
  -14.0219  205.2624  111.3579 Br  0  0  0  0  0  0  0  0  0  0  0  0
  -14.7669  205.6226  113.1088 C   0  0  0  0  0  0  0  0  0  0  0  0
  -14.7475  207.0413  113.5214 N   0  0  0  0  0  0  0  0  0  0  0  0
  -14.0137  207.0061  114.6061 C   0  0  0  0  0  0  0  0  0  0  0  0
  -13.2037  205.8013  114.8120 C   0  0  0  0  0  0  0  0  0  0  0  0
  -13.9026  204.9080  114.1020 C   0  0  0  0  0  0  0  0  0  0  0  0
  -11.7686  206.0597  114.8017 C   0  0  0  0  0  0  0  0  0  0  0  0
  -11.0753  206.4571  113.7106 C   0  0  0  0  0  0  0  0  0  0  0  0
  -11.4980  206.8069  112.4535 N   0  0  0  0  0  0  0  0  0  0  0  0
  -10.4261  207.2763  111.7565 C   0  0  0  0  0  0  0  0  0  0  0  0
   -9.3014  207.2140  112.3838 N   0  0  0  0  0  0  0  0  0  0  0  0
   -9.5777  206.6946  113.6475 C   0  0  0  0  0  0  0  0  0  0  0  0
   -8.7782  206.4438  114.5323 O   0  0  0  0  0  0  0  0  0  0  0  0
  -10.6477  207.7255  110.5124 N   0  0  0  0  0  0  0  0  0  0  0  0
  -11.2710  206.1054  116.2169 C   0  0  0  0  0  0  0  0  0  0  0  0
  -12.2892  206.7658  117.1840 C   0  0  0  0  0  0  0  0  0  0  0  0
  -12.9738  207.9725  116.6951 N   0  0  0  0  0  0  0  0  0  0  0  0
  -13.8875  208.1065  115.6536 C   0  0  0  0  0  0  0  0  0  0  0  0
  -14.6357  209.0747  115.6055 O   0  0  0  0  0  0  0  0  0  0  0  0
  -12.4377  207.1555  112.2998 H   0  0  0  0  0  0  0  0  0  0  0  0
  -11.3618  207.2329  109.9833 H   0  0  0  0  0  0  0  0  0  0  0  0
   -9.7841  207.8102  109.9819 H   0  0  0  0  0  0  0  0  0  0  0  0
  -13.1001  208.7141  117.3757 H   0  0  0  0  0  0  0  0  0  0  0  0
  2  3  1  0  0  0
  2  6  1  0  0  0
  2  1  1  0  0  0
  3  4  2  0  0  0
  4  5  1  0  0  0
  4 18  1  0  0  0
  5  6  2  0  0  0
  5  7  1  0  0  0
  7  8  2  0  0  0
  7 15  1  0  0  0
  8  9  1  0  0  0
  8 12  1  0  0  0
  9 10  1  0  0  0
  9 20  1  0  0  0
 10 11  2  0  0  0
 10 14  1  0  0  0
 11 12  1  0  0  0
 12 13  2  0  0  0
 14 21  1  0  0  0
 14 22  1  0  0  0
 15 16  1  0  0  0
 16 17  1  0  0  0
 17 18  1  0  0  0
 17 23  1  0  0  0
 18 19  2  0  0  0
M  END
> <minimizedAffinity>
-4.64835

$$$$
data/CDK2/cocry_dataset/1dm2_HMD_LIG.pdb


 23 25  0  0  0  0  0  0  0  0999 V2000
  -15.6149  204.6716  112.4785 Br  0  0  0  0  0  0  0  0  0  0  0  0
  -16.3269  205.6204  114.0092 C   0  0  0  0  0  0  0  0  0  0  0  0
  -15.8430  207.0071  114.1711 N   0  0  0  0  0  0  0  0  0  0  0  0
  -15.2608  206.9639  115.3440 C   0  0  0  0  0  0  0  0  0  0  0  0
  -14.9473  205.6328  115.8728 C   0  0  0  0  0  0  0  0  0  0  0  0
  -15.8550  204.8898  115.2289 C   0  0  0  0  0  0  0  0  0  0  0  0
  -13.5176  205.3962  116.0350 C   0  0  0  0  0  0  0  0  0  0  0  0
  -12.6412  205.3018  115.0094 C   0  0  0  0  0  0  0  0  0  0  0  0
  -12.8082  205.4953  113.6617 N   0  0  0  0  0  0  0  0  0  0  0  0
  -11.5860  205.4263  113.0645 C   0  0  0  0  0  0  0  0  0  0  0  0
  -10.6113  205.1324  113.8557 N   0  0  0  0  0  0  0  0  0  0  0  0
  -11.1561  205.0142  115.1332 C   0  0  0  0  0  0  0  0  0  0  0  0
  -10.5723  204.7085  116.1582 O   0  0  0  0  0  0  0  0  0  0  0  0
  -11.5317  205.6479  111.7429 N   0  0  0  0  0  0  0  0  0  0  0  0
  -13.1543  205.5755  117.4802 C   0  0  0  0  0  0  0  0  0  0  0  0
  -13.9507  206.7238  118.1552 C   0  0  0  0  0  0  0  0  0  0  0  0
  -14.1232  207.9553  117.3694 N   0  0  0  0  0  0  0  0  0  0  0  0
  -14.8418  208.1577  116.1946 C   0  0  0  0  0  0  0  0  0  0  0  0
  -15.1941  209.2844  115.8692 O   0  0  0  0  0  0  0  0  0  0  0  0
  -13.5487  206.0925  113.3107 H   0  0  0  0  0  0  0  0  0  0  0  0
  -12.3272  205.3171  111.2043 H   0  0  0  0  0  0  0  0  0  0  0  0
  -10.6530  205.3289  111.3422 H   0  0  0  0  0  0  0  0  0  0  0  0
  -14.0358  208.8239  117.8862 H   0  0  0  0  0  0  0  0  0  0  0  0
  2  3  1  0  0  0
  2  6  1  0  0  0
  2  1  1  0  0  0
  3  4  2  0  0  0
  4  5  1  0  0  0
  4 18  1  0  0  0
  5  6  2  0  0  0
  5  7  1  0  0  0
  7  8  2  0  0  0
  7 15  1  0  0  0
  8  9  1  0  0  0
  8 12  1  0  0  0
  9 10  1  0  0  0
  9 20  1  0  0  0
 10 11  2  0  0  0
 10 14  1  0  0  0
 11 12  1  0  0  0
 12 13  2  0  0  0
 14 21  1  0  0  0
 14 22  1  0  0  0
 15 16  1  0  0  0
 16 17  1  0  0  0
 17 18  1  0  0  0
 17 23  1  0  0  0
 18 19  2  0  0  0
M  END
> <minimizedAffinity>
-4.64227

$$$$
data/CDK2/cocry_dataset/1dm2_HMD_LIG.pdb


 23 25  0  0  0  0  0  0  0  0999 V2000
  -11.2587  205.5059  117.5629 Br  0  0  0  0  0  0  0  0  0  0  0  0
  -10.0772  205.5431  116.0289 C   0  0  0  0  0  0  0  0  0  0  0  0
   -9.8249  206.8838  115.4611 N   0  0  0  0  0  0  0  0  0  0  0  0
  -10.2757  206.7576  114.2375 C   0  0  0  0  0  0  0  0  0  0  0  0
  -11.1524  205.6118  113.9757 C   0  0  0  0  0  0  0  0  0  0  0  0
  -10.7579  204.7720  114.9398 C   0  0  0  0  0  0  0  0  0  0  0  0
  -12.5058  205.9946  113.5907 C   0  0  0  0  0  0  0  0  0  0  0  0
  -13.3873  206.6044  114.4153 C   0  0  0  0  0  0  0  0  0  0  0  0
  -13.2395  207.0930  115.6884 N   0  0  0  0  0  0  0  0  0  0  0  0
  -14.3824  207.7504  116.0302 C   0  0  0  0  0  0  0  0  0  0  0  0
  -15.3226  207.6978  115.1495 N   0  0  0  0  0  0  0  0  0  0  0  0
  -14.8162  206.9796  114.0676 C   0  0  0  0  0  0  0  0  0  0  0  0
  -15.4043  206.6755  113.0445 O   0  0  0  0  0  0  0  0  0  0  0  0
  -14.4131  208.3527  117.2281 N   0  0  0  0  0  0  0  0  0  0  0  0
  -12.6399  205.8797  112.1002 C   0  0  0  0  0  0  0  0  0  0  0  0
  -11.3470  206.3016  111.3528 C   0  0  0  0  0  0  0  0  0  0  0  0
  -10.6588  207.5011  111.8543 N   0  0  0  0  0  0  0  0  0  0  0  0
  -10.0125  207.7026  113.0705 C   0  0  0  0  0  0  0  0  0  0  0  0
   -9.1860  208.5979  113.1930 O   0  0  0  0  0  0  0  0  0  0  0  0
  -12.3291  207.3758  116.0337 H   0  0  0  0  0  0  0  0  0  0  0  0
  -13.9120  207.8805  117.9753 H   0  0  0  0  0  0  0  0  0  0  0  0
  -15.3619  208.5887  117.5081 H   0  0  0  0  0  0  0  0  0  0  0  0
  -10.2839  208.1229  111.1458 H   0  0  0  0  0  0  0  0  0  0  0  0
  2  3  1  0  0  0
  2  6  1  0  0  0
  2  1  1  0  0  0
  3  4  2  0  0  0
  4  5  1  0  0  0
  4 18  1  0  0  0
  5  6  2  0  0  0
  5  7  1  0  0  0
  7  8  2  0  0  0
  7 15  1  0  0  0
  8  9  1  0  0  0
  8 12  1  0  0  0
  9 10  1  0  0  0
  9 20  1  0  0  0
 10 11  2  0  0  0
 10 14  1  0  0  0
 11 12  1  0  0  0
 12 13  2  0  0  0
 14 21  1  0  0  0
 14 22  1  0  0  0
 15 16  1  0  0  0
 16 17  1  0  0  0
 17 18  1  0  0  0
 17 23  1  0  0  0
 18 19  2  0  0  0
M  END
> <minimizedAffinity>
-4.59813

$$$$
