data/CDK2/cocry_dataset/1e1v_CMG_LIG.pdb


 20 22  0  0  0  0  0  0  0  0999 V2000
  -15.0193  206.0067  116.5446 N   0  0  0  0  0  0  0  0  0  0  0  0
  -15.7136  205.2060  115.8302 C   0  0  0  0  0  0  0  0  0  0  0  0
  -15.9595  205.4935  114.4242 C   0  0  0  0  0  0  0  0  0  0  0  0
  -16.6256  204.8878  113.4942 N   0  0  0  0  0  0  0  0  0  0  0  0
  -16.4741  205.7314  112.3931 C   0  0  0  0  0  0  0  0  0  0  0  0
  -15.7660  206.8108  112.5679 N   0  0  0  0  0  0  0  0  0  0  0  0
  -15.4009  206.7126  113.8750 C   0  0  0  0  0  0  0  0  0  0  0  0
  -14.7124  207.5384  114.5571 N   0  0  0  0  0  0  0  0  0  0  0  0
  -14.4396  207.2024  115.9472 C   0  0  0  0  0  0  0  0  0  0  0  0
  -14.8629  208.3315  116.7254 N   0  0  0  0  0  0  0  0  0  0  0  0
  -15.8701  208.3992  116.6275 H   0  0  0  0  0  0  0  0  0  0  0  0
  -14.4927  209.1538  116.2538 H   0  0  0  0  0  0  0  0  0  0  0  0
  -16.2973  204.0761  116.2483 O   0  0  0  0  0  0  0  0  0  0  0  0
  -15.7019  203.4134  117.3777 C   0  0  0  0  0  0  0  0  0  0  0  0
  -16.6118  202.2450  117.7730 C   0  0  0  0  0  0  0  0  0  0  0  0
  -17.3594  202.5289  119.0815 C   0  0  0  0  0  0  0  0  0  0  0  0
  -18.3082  201.3809  119.4268 C   0  0  0  0  0  0  0  0  0  0  0  0
  -17.5828  200.0383  119.4868 C   0  0  0  0  0  0  0  0  0  0  0  0
  -16.7703  199.7673  118.2240 C   0  0  0  0  0  0  0  0  0  0  0  0
  -15.8318  200.9252  117.8933 C   0  0  0  0  0  0  0  0  0  0  0  0
  1  2  2  0  0  0
  1  9  1  0  0  0
  2  3  1  0  0  0
  2 13  1  0  0  0
  3  4  2  0  0  0
  3  7  1  0  0  0
  4  5  1  0  0  0
  5  6  2  0  0  0
  6  7  1  0  0  0
  7  8  2  0  0  0
  8  9  1  0  0  0
  9 10  1  0  0  0
 10 11  1  0  0  0
 10 12  1  0  0  0
 13 14  1  0  0  0
 14 15  1  0  0  0
 15 16  1  0  0  0
 15 20  1  0  0  0
 16 17  1  0  0  0
 17 18  1  0  0  0
 18 19  1  0  0  0
 19 20  1  0  0  0
M  END
> <minimizedAffinity>
-6.58453

$$$$
data/CDK2/cocry_dataset/1e1v_CMG_LIG.pdb


 20 22  0  0  0  0  0  0  0  0999 V2000
  -14.6401  206.5959  118.4412 N   0  0  0  0  0  0  0  0  0  0  0  0
  -14.3159  206.7801  117.2188 C   0  0  0  0  0  0  0  0  0  0  0  0
  -13.0053  207.3117  116.8734 C   0  0  0  0  0  0  0  0  0  0  0  0
  -12.4325  207.6113  115.7519 N   0  0  0  0  0  0  0  0  0  0  0  0
  -11.1904  208.1063  116.1510 C   0  0  0  0  0  0  0  0  0  0  0  0
  -10.9488  208.1358  117.4307 N   0  0  0  0  0  0  0  0  0  0  0  0
  -12.0966  207.6288  117.9568 C   0  0  0  0  0  0  0  0  0  0  0  0
  -12.3871  207.4675  119.1860 N   0  0  0  0  0  0  0  0  0  0  0  0
  -13.6849  206.8880  119.5018 C   0  0  0  0  0  0  0  0  0  0  0  0
  -14.3150  207.7889  120.4243 N   0  0  0  0  0  0  0  0  0  0  0  0
  -14.4888  208.6536  119.9237 H   0  0  0  0  0  0  0  0  0  0  0  0
  -13.6088  208.0200  121.1197 H   0  0  0  0  0  0  0  0  0  0  0  0
  -15.0908  206.5505  116.1514 O   0  0  0  0  0  0  0  0  0  0  0  0
  -15.4533  205.1831  115.8904 C   0  0  0  0  0  0  0  0  0  0  0  0
  -15.6305  205.0225  114.3764 C   0  0  0  0  0  0  0  0  0  0  0  0
  -14.3592  204.4787  113.7134 C   0  0  0  0  0  0  0  0  0  0  0  0
  -14.5748  204.2659  112.2149 C   0  0  0  0  0  0  0  0  0  0  0  0
  -15.0574  205.5376  111.5206 C   0  0  0  0  0  0  0  0  0  0  0  0
  -16.2791  206.1395  112.2087 C   0  0  0  0  0  0  0  0  0  0  0  0
  -16.0466  206.3414  113.7040 C   0  0  0  0  0  0  0  0  0  0  0  0
  1  2  2  0  0  0
  1  9  1  0  0  0
  2  3  1  0  0  0
  2 13  1  0  0  0
  3  4  2  0  0  0
  3  7  1  0  0  0
  4  5  1  0  0  0
  5  6  2  0  0  0
  6  7  1  0  0  0
  7  8  2  0  0  0
  8  9  1  0  0  0
  9 10  1  0  0  0
 10 11  1  0  0  0
 10 12  1  0  0  0
 13 14  1  0  0  0
 14 15  1  0  0  0
 15 16  1  0  0  0
 15 20  1  0  0  0
 16 17  1  0  0  0
 17 18  1  0  0  0
 18 19  1  0  0  0
 19 20  1  0  0  0
M  END
> <minimizedAffinity>
-6.30430

$$$$
data/CDK2/cocry_dataset/1e1v_CMG_LIG.pdb


 20 22  0  0  0  0  0  0  0  0999 V2000
  -14.8903  204.3646  118.0432 N   0  0  0  0  0  0  0  0  0  0  0  0
  -15.7386  203.7511  117.3101 C   0  0  0  0  0  0  0  0  0  0  0  0
  -16.5891  202.7127  117.8741 C   0  0  0  0  0  0  0  0  0  0  0  0
  -17.4953  201.9346  117.3752 N   0  0  0  0  0  0  0  0  0  0  0  0
  -17.8826  201.1563  118.4665 C   0  0  0  0  0  0  0  0  0  0  0  0
  -17.2886  201.3918  119.6017 N   0  0  0  0  0  0  0  0  0  0  0  0
  -16.4323  202.3991  119.2801 C   0  0  0  0  0  0  0  0  0  0  0  0
  -15.5927  202.9819  120.0395 N   0  0  0  0  0  0  0  0  0  0  0  0
  -14.7896  204.0504  119.4623 C   0  0  0  0  0  0  0  0  0  0  0  0
  -13.4209  203.7228  119.7433 N   0  0  0  0  0  0  0  0  0  0  0  0
  -13.2057  202.8766  119.2274 H   0  0  0  0  0  0  0  0  0  0  0  0
  -13.3912  203.4528  120.7241 H   0  0  0  0  0  0  0  0  0  0  0  0
  -15.9375  203.9431  116.0001 O   0  0  0  0  0  0  0  0  0  0  0  0
  -14.8137  204.4058  115.2305 C   0  0  0  0  0  0  0  0  0  0  0  0
  -15.2915  204.6439  113.7937 C   0  0  0  0  0  0  0  0  0  0  0  0
  -14.1172  204.9156  112.8456 C   0  0  0  0  0  0  0  0  0  0  0  0
  -14.6068  205.0882  111.4077 C   0  0  0  0  0  0  0  0  0  0  0  0
  -15.6708  206.1777  111.2931 C   0  0  0  0  0  0  0  0  0  0  0  0
  -16.8152  205.9694  112.2807 C   0  0  0  0  0  0  0  0  0  0  0  0
  -16.3072  205.7956  113.7099 C   0  0  0  0  0  0  0  0  0  0  0  0
  1  2  2  0  0  0
  1  9  1  0  0  0
  2  3  1  0  0  0
  2 13  1  0  0  0
  3  4  2  0  0  0
  3  7  1  0  0  0
  4  5  1  0  0  0
  5  6  2  0  0  0
  6  7  1  0  0  0
  7  8  2  0  0  0
  8  9  1  0  0  0
  9 10  1  0  0  0
 10 11  1  0  0  0
 10 12  1  0  0  0
 13 14  1  0  0  0
 14 15  1  0  0  0
 15 16  1  0  0  0
 15 20  1  0  0  0
 16 17  1  0  0  0
 17 18  1  0  0  0
 18 19  1  0  0  0
 19 20  1  0  0  0
M  END
> <minimizedAffinity>
-6.16780

$$$$
