data/CDK2/cocry_dataset/1e1v_CMG_LIG.pdb
 OpenBabel03092321123D

 20 22  0  0  0  0  0  0  0  0999 V2000
  -15.0193  206.0067  116.5446 N   0  0  0  0  0  0  0  0  0  0  0  0
  -15.7136  205.2060  115.8302 C   0  0  0  0  0  0  0  0  0  0  0  0
  -15.9595  205.4935  114.4242 C   0  0  0  0  0  0  0  0  0  0  0  0
  -16.6256  204.8878  113.4942 N   0  0  0  0  0  0  0  0  0  0  0  0
  -16.4741  205.7314  112.3931 C   0  0  0  0  0  0  0  0  0  0  0  0
  -15.7660  206.8108  112.5679 N   0  0  0  0  0  0  0  0  0  0  0  0
  -15.4009  206.7126  113.8750 C   0  0  0  0  0  0  0  0  0  0  0  0
  -14.7124  207.5384  114.5571 N   0  0  0  0  0  0  0  0  0  0  0  0
  -14.4396  207.2024  115.9472 C   0  0  1  0  0  0  0  0  0  0  0  0
  -14.8629  208.3315  116.7254 N   0  0  0  0  0  0  0  0  0  0  0  0
  -15.8701  208.3992  116.6275 H   0  0  0  0  0  0  0  0  0  0  0  0
  -14.4927  209.1538  116.2538 H   0  0  0  0  0  0  0  0  0  0  0  0
  -16.2973  204.0761  116.2483 O   0  0  0  0  0  0  0  0  0  0  0  0
  -15.7019  203.4134  117.3777 C   0  0  0  0  0  0  0  0  0  0  0  0
  -16.6118  202.2450  117.7730 C   0  0  0  0  0  0  0  0  0  0  0  0
  -17.3594  202.5289  119.0815 C   0  0  0  0  0  0  0  0  0  0  0  0
  -18.3082  201.3809  119.4268 C   0  0  0  0  0  0  0  0  0  0  0  0
  -17.5828  200.0383  119.4868 C   0  0  0  0  0  0  0  0  0  0  0  0
  -16.7703  199.7673  118.2240 C   0  0  0  0  0  0  0  0  0  0  0  0
  -15.8318  200.9252  117.8933 C   0  0  0  0  0  0  0  0  0  0  0  0
  1  2  2  0  0  0  0
  1  9  1  0  0  0  0
  2  3  1  0  0  0  0
  2 13  1  0  0  0  0
  3  4  2  0  0  0  0
  3  7  1  0  0  0  0
  4  5  1  0  0  0  0
  5  6  2  0  0  0  0
  6  7  1  0  0  0  0
  7  8  2  0  0  0  0
  8  9  1  0  0  0  0
  9 10  1  1  0  0  0
 10 11  1  0  0  0  0
 10 12  1  0  0  0  0
 13 14  1  0  0  0  0
 14 15  1  0  0  0  0
 15 16  1  0  0  0  0
 15 20  1  0  0  0  0
 16 17  1  0  0  0  0
 17 18  1  0  0  0  0
 18 19  1  0  0  0  0
 19 20  1  0  0  0  0
M  END
>  <minimizedAffinity>
-6.58453

$$$$
