data/CDK2/cocry_dataset/1e1x_NW1_LIG.pdb
 OpenBabel03092321123D

 22 23  0  0  0  0  0  0  0  0999 V2000
  -17.2491  203.2488  117.4309 N   0  0  0  0  0  0  0  0  0  0  0  0
  -16.0221  202.8956  117.2481 C   0  0  0  0  0  0  0  0  0  0  0  0
  -15.5583  201.4867  117.5555 C   0  0  0  0  0  0  0  0  0  0  0  0
  -14.3051  201.1368  117.4136 N   0  0  0  0  0  0  0  0  0  0  0  0
  -14.0645  199.7940  117.7533 O   0  0  0  0  0  0  0  0  0  0  0  0
  -16.6943  200.6117  118.0272 C   0  0  0  0  0  0  0  0  0  0  0  0
  -16.5563  199.3520  118.3107 N   0  0  0  0  0  0  0  0  0  0  0  0
  -17.9439  201.1225  118.1908 N   0  0  0  0  0  0  0  0  0  0  0  0
  -18.1569  202.3667  117.9333 C   0  0  0  0  0  0  0  0  0  0  0  0
  -19.3914  202.8658  118.1685 N   0  0  0  0  0  0  0  0  0  0  0  0
  -13.1011  199.6955  117.6107 H   0  0  0  0  0  0  0  0  0  0  0  0
  -15.5630  199.1091  118.1646 H   0  0  0  0  0  0  0  0  0  0  0  0
  -20.1179  202.1585  118.2234 H   0  0  0  0  0  0  0  0  0  0  0  0
  -19.6286  203.7043  117.6623 H   0  0  0  0  0  0  0  0  0  0  0  0
  -15.0810  203.7424  116.7681 O   0  0  0  0  0  0  0  0  0  0  0  0
  -15.5768  204.9072  116.0624 C   0  0  0  0  0  0  0  0  0  0  0  0
  -15.7754  204.6434  114.5550 C   0  0  0  0  0  0  0  0  0  0  0  0
  -14.4256  204.2758  113.9054 C   0  0  0  0  0  0  0  0  0  0  0  0
  -14.5346  204.0680  112.3952 C   0  0  0  0  0  0  0  0  0  0  0  0
  -15.1729  205.2726  111.7127 C   0  0  0  0  0  0  0  0  0  0  0  0
  -16.5254  205.6065  112.3320 C   0  0  0  0  0  0  0  0  0  0  0  0
  -16.4145  205.8422  113.8395 C   0  0  0  0  0  0  0  0  0  0  0  0
  1  2  2  0  0  0  0
  1  9  1  0  0  0  0
  2 15  1  0  0  0  0
  2  3  1  0  0  0  0
  3  4  2  0  0  0  0
  3  6  1  0  0  0  0
  4  5  1  0  0  0  0
  5 11  1  0  0  0  0
  6  7  2  0  0  0  0
  6  8  1  0  0  0  0
  7 12  1  0  0  0  0
  8  9  2  0  0  0  0
  9 10  1  0  0  0  0
 10 13  1  0  0  0  0
 10 14  1  0  0  0  0
 15 16  1  0  0  0  0
 16 17  1  0  0  0  0
 17 18  1  0  0  0  0
 17 22  1  0  0  0  0
 18 19  1  0  0  0  0
 19 20  1  0  0  0  0
 20 21  1  0  0  0  0
 21 22  1  0  0  0  0
M  END
>  <minimizedAffinity>
-6.55428

$$$$
