data/CDK2/cocry_dataset/1e9h_INR_LIG.pdb
 OpenBabel03092321123D

 28 31  0  0  0  0  0  0  0  0999 V2000
  -13.7991  204.0788  117.1533 C   0  0  2  0  0  0  0  0  0  0  0  0
  -13.1418  204.9745  118.2032 C   0  0  0  0  0  0  0  0  0  0  0  0
  -12.4787  204.6087  119.1585 O   0  0  0  0  0  0  0  0  0  0  0  0
  -13.3912  206.2973  117.8418 N   0  0  0  0  0  0  0  0  0  0  0  0
  -14.1729  206.3707  116.7009 C   0  0  0  0  0  0  0  0  0  0  0  0
  -14.4883  205.0828  116.2659 C   0  0  0  0  0  0  0  0  0  0  0  0
  -15.2384  204.8896  115.1214 C   0  0  0  0  0  0  0  0  0  0  0  0
  -15.6386  206.0290  114.4199 C   0  0  0  0  0  0  0  0  0  0  0  0
  -15.3228  207.3254  114.8574 C   0  0  0  0  0  0  0  0  0  0  0  0
  -14.5803  207.5049  116.0281 C   0  0  0  0  0  0  0  0  0  0  0  0
  -13.0353  207.0830  118.3672 H   0  0  0  0  0  0  0  0  0  0  0  0
  -15.7491  201.1541  117.9960 C   0  0  0  0  0  0  0  0  0  0  0  0
  -16.2632  201.9389  119.0277 C   0  0  0  0  0  0  0  0  0  0  0  0
  -17.2039  201.4922  119.9337 C   0  0  0  0  0  0  0  0  0  0  0  0
  -17.6498  200.1774  119.7804 C   0  0  0  0  0  0  0  0  0  0  0  0
  -17.1503  199.3657  118.7428 C   0  0  0  0  0  0  0  0  0  0  0  0
  -16.1920  199.8536  117.8441 C   0  0  0  0  0  0  0  0  0  0  0  0
  -15.6138  203.2316  118.8711 C   0  0  0  0  0  0  0  0  0  0  0  0
  -15.7959  204.2587  119.4760 O   0  0  0  0  0  0  0  0  0  0  0  0
  -14.6801  203.0134  117.6826 C   0  0  0  0  0  0  0  0  0  0  0  0
  -14.8000  201.8088  117.1846 N   0  0  0  0  0  0  0  0  0  0  0  0
  -16.4948  205.8206  112.9379 S   0  0  0  0  0  0  0  0  0  0  0  0
  -16.7155  204.2695  112.6048 O   0  0  0  0  0  0  0  0  0  0  0  0
  -17.9438  206.5030  112.9501 O   0  0  0  0  0  0  0  0  0  0  0  0
  -15.6760  206.4340  111.7089 O   0  0  0  0  0  0  0  0  0  0  0  0
  -17.5300  203.8782  112.9912 H   0  0  0  0  0  0  0  0  0  0  0  0
  -18.5066  206.3076  113.7297 H   0  0  0  0  0  0  0  0  0  0  0  0
  -15.0871  205.7778  111.2738 H   0  0  0  0  0  0  0  0  0  0  0  0
  1  2  1  0  0  0  0
  1  6  1  0  0  0  0
  1 20  1  1  0  0  0
  2  3  2  0  0  0  0
  2  4  1  0  0  0  0
  4  5  1  0  0  0  0
  4 11  1  0  0  0  0
  5  6  1  0  0  0  0
  5 10  2  0  0  0  0
  6  7  2  0  0  0  0
  7  8  1  0  0  0  0
  8  9  2  0  0  0  0
  8 22  1  0  0  0  0
  9 10  1  0  0  0  0
 12 13  1  0  0  0  0
 12 17  2  0  0  0  0
 12 21  1  0  0  0  0
 13 14  2  0  0  0  0
 13 18  1  0  0  0  0
 14 15  1  0  0  0  0
 15 16  2  0  0  0  0
 16 17  1  0  0  0  0
 18 19  2  0  0  0  0
 18 20  1  0  0  0  0
 20 21  2  0  0  0  0
 22 23  1  0  0  0  0
 22 24  1  0  0  0  0
 22 25  1  0  0  0  0
 23 26  1  0  0  0  0
 24 27  1  0  0  0  0
 25 28  1  0  0  0  0
M  END
>  <minimizedAffinity>
-7.48462

$$$$
