data/CDK2/cocry_dataset/1e9h_INR_LIG.pdb
 OpenBabel03092321123D

 28 31  0  0  0  0  0  0  0  0999 V2000
  -11.5246  204.8602  114.8313 C   0  0  2  0  0  0  0  0  0  0  0  0
  -11.6263  204.5622  116.3270 C   0  0  0  0  0  0  0  0  0  0  0  0
  -12.3676  203.7532  116.8583 O   0  0  0  0  0  0  0  0  0  0  0  0
  -10.6752  205.3468  116.9769 N   0  0  0  0  0  0  0  0  0  0  0  0
   -9.9925  206.1562  116.0842 C   0  0  0  0  0  0  0  0  0  0  0  0
  -10.4822  205.9476  114.7942 C   0  0  0  0  0  0  0  0  0  0  0  0
   -9.9381  206.6205  113.7167 C   0  0  0  0  0  0  0  0  0  0  0  0
   -8.8750  207.4882  113.9759 C   0  0  0  0  0  0  0  0  0  0  0  0
   -8.3822  207.6997  115.2737 C   0  0  0  0  0  0  0  0  0  0  0  0
   -8.9564  207.0267  116.3561 C   0  0  0  0  0  0  0  0  0  0  0  0
  -10.5270  205.3097  117.9753 H   0  0  0  0  0  0  0  0  0  0  0  0
  -14.8634  205.7047  113.7331 C   0  0  0  0  0  0  0  0  0  0  0  0
  -14.3333  205.6251  112.4457 C   0  0  0  0  0  0  0  0  0  0  0  0
  -15.0703  205.8438  111.2994 C   0  0  0  0  0  0  0  0  0  0  0  0
  -16.4209  206.1563  111.4702 C   0  0  0  0  0  0  0  0  0  0  0  0
  -16.9821  206.2373  112.7599 C   0  0  0  0  0  0  0  0  0  0  0  0
  -16.2004  206.0125  113.9012 C   0  0  0  0  0  0  0  0  0  0  0  0
  -12.9392  205.2564  112.6395 C   0  0  0  0  0  0  0  0  0  0  0  0
  -12.0960  204.9906  111.8194 O   0  0  0  0  0  0  0  0  0  0  0  0
  -12.7987  205.2015  114.1590 C   0  0  0  0  0  0  0  0  0  0  0  0
  -13.9355  205.4423  114.7616 N   0  0  0  0  0  0  0  0  0  0  0  0
   -8.1123  208.2714  112.6426 S   0  0  0  0  0  0  0  0  0  0  0  0
   -8.0113  207.2982  111.3743 O   0  0  0  0  0  0  0  0  0  0  0  0
   -8.8906  209.5848  112.1585 O   0  0  0  0  0  0  0  0  0  0  0  0
   -6.6140  208.6969  113.0051 O   0  0  0  0  0  0  0  0  0  0  0  0
   -8.7946  207.3142  110.7810 H   0  0  0  0  0  0  0  0  0  0  0  0
   -9.8577  209.4884  112.0233 H   0  0  0  0  0  0  0  0  0  0  0  0
   -5.9520  208.0086  112.7717 H   0  0  0  0  0  0  0  0  0  0  0  0
  1  2  1  0  0  0  0
  1  6  1  0  0  0  0
  1 20  1  1  0  0  0
  2  3  2  0  0  0  0
  2  4  1  0  0  0  0
  4  5  1  0  0  0  0
  4 11  1  0  0  0  0
  5  6  1  0  0  0  0
  5 10  2  0  0  0  0
  6  7  2  0  0  0  0
  7  8  1  0  0  0  0
  8  9  2  0  0  0  0
  8 22  1  0  0  0  0
  9 10  1  0  0  0  0
 12 13  1  0  0  0  0
 12 17  2  0  0  0  0
 12 21  1  0  0  0  0
 13 14  2  0  0  0  0
 13 18  1  0  0  0  0
 14 15  1  0  0  0  0
 15 16  2  0  0  0  0
 16 17  1  0  0  0  0
 18 19  2  0  0  0  0
 18 20  1  0  0  0  0
 20 21  2  0  0  0  0
 22 23  1  0  0  0  0
 22 24  1  0  0  0  0
 22 25  1  0  0  0  0
 23 26  1  0  0  0  0
 24 27  1  0  0  0  0
 25 28  1  0  0  0  0
M  END
>  <minimizedAffinity>
-7.44209

$$$$
