data/CDK2/cocry_dataset/1e9h_INR_LIG.pdb


 28 31  0  0  0  0  0  0  0  0999 V2000
  -11.5170  206.0313  111.3315 C   0  0  0  0  0  0  0  0  0  0  0  0
  -11.3321  206.6000  109.9248 C   0  0  0  0  0  0  0  0  0  0  0  0
  -10.2769  206.7418  109.3309 O   0  0  0  0  0  0  0  0  0  0  0  0
  -12.5989  206.8799  109.4153 N   0  0  0  0  0  0  0  0  0  0  0  0
  -13.5893  206.6012  110.3425 C   0  0  0  0  0  0  0  0  0  0  0  0
  -13.0081  206.1346  111.5224 C   0  0  0  0  0  0  0  0  0  0  0  0
  -13.7948  205.7575  112.5941 C   0  0  0  0  0  0  0  0  0  0  0  0
  -15.1793  205.8431  112.4318 C   0  0  0  0  0  0  0  0  0  0  0  0
  -15.7651  206.3136  111.2455 C   0  0  0  0  0  0  0  0  0  0  0  0
  -14.9553  206.7102  110.1773 C   0  0  0  0  0  0  0  0  0  0  0  0
  -12.7448  207.2424  108.4840 H   0  0  0  0  0  0  0  0  0  0  0  0
   -9.4525  208.0288  113.5255 C   0  0  0  0  0  0  0  0  0  0  0  0
   -9.6407  206.9992  114.4470 C   0  0  0  0  0  0  0  0  0  0  0  0
   -9.0976  206.9987  115.7160 C   0  0  0  0  0  0  0  0  0  0  0  0
   -8.3172  208.1028  116.0664 C   0  0  0  0  0  0  0  0  0  0  0  0
   -8.1071  209.1536  115.1517 C   0  0  0  0  0  0  0  0  0  0  0  0
   -8.6788  209.1204  113.8726 C   0  0  0  0  0  0  0  0  0  0  0  0
  -10.4604  206.0203  113.7491 C   0  0  0  0  0  0  0  0  0  0  0  0
  -10.8156  204.9246  114.1060 O   0  0  0  0  0  0  0  0  0  0  0  0
  -10.7113  206.6759  112.3930 C   0  0  0  0  0  0  0  0  0  0  0  0
  -10.0948  207.8257  112.2871 N   0  0  0  0  0  0  0  0  0  0  0  0
  -16.1907  205.2920  113.7148 S   0  0  0  0  0  0  0  0  0  0  0  0
  -17.6618  204.9400  113.1878 O   0  0  0  0  0  0  0  0  0  0  0  0
  -15.6289  203.9762  114.4347 O   0  0  0  0  0  0  0  0  0  0  0  0
  -16.3701  206.4217  114.8323 O   0  0  0  0  0  0  0  0  0  0  0  0
  -17.7730  204.0185  112.8651 H   0  0  0  0  0  0  0  0  0  0  0  0
  -15.3553  203.2434  113.8424 H   0  0  0  0  0  0  0  0  0  0  0  0
  -17.1536  206.9949  114.6769 H   0  0  0  0  0  0  0  0  0  0  0  0
 12 13  1  0  0  0
 12 17  2  0  0  0
 12 21  1  0  0  0
 13 14  2  0  0  0
 13 18  1  0  0  0
 14 15  1  0  0  0
 15 16  2  0  0  0
 16 17  1  0  0  0
 18 19  2  0  0  0
 18 20  1  0  0  0
 20 21  2  0  0  0
  1  2  1  0  0  0
  1  6  1  0  0  0
  1 20  1  0  0  0
  2  3  2  0  0  0
  2  4  1  0  0  0
  4  5  1  0  0  0
  4 11  1  0  0  0
  5  6  1  0  0  0
  5 10  2  0  0  0
  6  7  2  0  0  0
  7  8  1  0  0  0
  8  9  2  0  0  0
  8 22  1  0  0  0
  9 10  1  0  0  0
 22 23  1  0  0  0
 22 24  1  0  0  0
 22 25  1  0  0  0
 23 26  1  0  0  0
 24 27  1  0  0  0
 25 28  1  0  0  0
M  END
> <minimizedAffinity>
-7.56470

$$$$
data/CDK2/cocry_dataset/1e9h_INR_LIG.pdb


 28 31  0  0  0  0  0  0  0  0999 V2000
  -13.7991  204.0788  117.1533 C   0  0  0  0  0  0  0  0  0  0  0  0
  -13.1418  204.9745  118.2032 C   0  0  0  0  0  0  0  0  0  0  0  0
  -12.4787  204.6087  119.1585 O   0  0  0  0  0  0  0  0  0  0  0  0
  -13.3912  206.2973  117.8418 N   0  0  0  0  0  0  0  0  0  0  0  0
  -14.1729  206.3707  116.7009 C   0  0  0  0  0  0  0  0  0  0  0  0
  -14.4883  205.0828  116.2659 C   0  0  0  0  0  0  0  0  0  0  0  0
  -15.2384  204.8896  115.1214 C   0  0  0  0  0  0  0  0  0  0  0  0
  -15.6386  206.0290  114.4199 C   0  0  0  0  0  0  0  0  0  0  0  0
  -15.3228  207.3254  114.8574 C   0  0  0  0  0  0  0  0  0  0  0  0
  -14.5803  207.5049  116.0281 C   0  0  0  0  0  0  0  0  0  0  0  0
  -13.0353  207.0830  118.3672 H   0  0  0  0  0  0  0  0  0  0  0  0
  -15.7491  201.1541  117.9960 C   0  0  0  0  0  0  0  0  0  0  0  0
  -16.2632  201.9389  119.0277 C   0  0  0  0  0  0  0  0  0  0  0  0
  -17.2039  201.4922  119.9337 C   0  0  0  0  0  0  0  0  0  0  0  0
  -17.6498  200.1774  119.7804 C   0  0  0  0  0  0  0  0  0  0  0  0
  -17.1503  199.3657  118.7428 C   0  0  0  0  0  0  0  0  0  0  0  0
  -16.1920  199.8536  117.8441 C   0  0  0  0  0  0  0  0  0  0  0  0
  -15.6138  203.2316  118.8711 C   0  0  0  0  0  0  0  0  0  0  0  0
  -15.7959  204.2587  119.4760 O   0  0  0  0  0  0  0  0  0  0  0  0
  -14.6801  203.0134  117.6826 C   0  0  0  0  0  0  0  0  0  0  0  0
  -14.8000  201.8088  117.1846 N   0  0  0  0  0  0  0  0  0  0  0  0
  -16.4948  205.8206  112.9379 S   0  0  0  0  0  0  0  0  0  0  0  0
  -16.7155  204.2695  112.6048 O   0  0  0  0  0  0  0  0  0  0  0  0
  -17.9438  206.5030  112.9501 O   0  0  0  0  0  0  0  0  0  0  0  0
  -15.6760  206.4340  111.7089 O   0  0  0  0  0  0  0  0  0  0  0  0
  -17.5300  203.8782  112.9912 H   0  0  0  0  0  0  0  0  0  0  0  0
  -18.5066  206.3076  113.7297 H   0  0  0  0  0  0  0  0  0  0  0  0
  -15.0871  205.7778  111.2738 H   0  0  0  0  0  0  0  0  0  0  0  0
 12 13  1  0  0  0
 12 17  2  0  0  0
 12 21  1  0  0  0
 13 14  2  0  0  0
 13 18  1  0  0  0
 14 15  1  0  0  0
 15 16  2  0  0  0
 16 17  1  0  0  0
 18 19  2  0  0  0
 18 20  1  0  0  0
 20 21  2  0  0  0
  1  2  1  0  0  0
  1  6  1  0  0  0
  1 20  1  0  0  0
  2  3  2  0  0  0
  2  4  1  0  0  0
  4  5  1  0  0  0
  4 11  1  0  0  0
  5  6  1  0  0  0
  5 10  2  0  0  0
  6  7  2  0  0  0
  7  8  1  0  0  0
  8  9  2  0  0  0
  8 22  1  0  0  0
  9 10  1  0  0  0
 22 23  1  0  0  0
 22 24  1  0  0  0
 22 25  1  0  0  0
 23 26  1  0  0  0
 24 27  1  0  0  0
 25 28  1  0  0  0
M  END
> <minimizedAffinity>
-7.48462

$$$$
data/CDK2/cocry_dataset/1e9h_INR_LIG.pdb


 28 31  0  0  0  0  0  0  0  0999 V2000
  -11.5246  204.8602  114.8313 C   0  0  0  0  0  0  0  0  0  0  0  0
  -11.6263  204.5622  116.3270 C   0  0  0  0  0  0  0  0  0  0  0  0
  -12.3676  203.7532  116.8583 O   0  0  0  0  0  0  0  0  0  0  0  0
  -10.6752  205.3468  116.9769 N   0  0  0  0  0  0  0  0  0  0  0  0
   -9.9925  206.1562  116.0842 C   0  0  0  0  0  0  0  0  0  0  0  0
  -10.4822  205.9476  114.7942 C   0  0  0  0  0  0  0  0  0  0  0  0
   -9.9381  206.6205  113.7167 C   0  0  0  0  0  0  0  0  0  0  0  0
   -8.8750  207.4882  113.9759 C   0  0  0  0  0  0  0  0  0  0  0  0
   -8.3822  207.6997  115.2737 C   0  0  0  0  0  0  0  0  0  0  0  0
   -8.9564  207.0267  116.3561 C   0  0  0  0  0  0  0  0  0  0  0  0
  -10.5270  205.3097  117.9753 H   0  0  0  0  0  0  0  0  0  0  0  0
  -14.8634  205.7047  113.7331 C   0  0  0  0  0  0  0  0  0  0  0  0
  -14.3333  205.6251  112.4457 C   0  0  0  0  0  0  0  0  0  0  0  0
  -15.0703  205.8438  111.2994 C   0  0  0  0  0  0  0  0  0  0  0  0
  -16.4209  206.1563  111.4702 C   0  0  0  0  0  0  0  0  0  0  0  0
  -16.9821  206.2373  112.7599 C   0  0  0  0  0  0  0  0  0  0  0  0
  -16.2004  206.0125  113.9012 C   0  0  0  0  0  0  0  0  0  0  0  0
  -12.9392  205.2564  112.6395 C   0  0  0  0  0  0  0  0  0  0  0  0
  -12.0960  204.9906  111.8194 O   0  0  0  0  0  0  0  0  0  0  0  0
  -12.7987  205.2015  114.1590 C   0  0  0  0  0  0  0  0  0  0  0  0
  -13.9355  205.4423  114.7616 N   0  0  0  0  0  0  0  0  0  0  0  0
   -8.1123  208.2714  112.6426 S   0  0  0  0  0  0  0  0  0  0  0  0
   -8.0113  207.2982  111.3743 O   0  0  0  0  0  0  0  0  0  0  0  0
   -8.8906  209.5848  112.1585 O   0  0  0  0  0  0  0  0  0  0  0  0
   -6.6140  208.6969  113.0051 O   0  0  0  0  0  0  0  0  0  0  0  0
   -8.7946  207.3142  110.7810 H   0  0  0  0  0  0  0  0  0  0  0  0
   -9.8577  209.4884  112.0233 H   0  0  0  0  0  0  0  0  0  0  0  0
   -5.9520  208.0086  112.7717 H   0  0  0  0  0  0  0  0  0  0  0  0
 12 13  1  0  0  0
 12 17  2  0  0  0
 12 21  1  0  0  0
 13 14  2  0  0  0
 13 18  1  0  0  0
 14 15  1  0  0  0
 15 16  2  0  0  0
 16 17  1  0  0  0
 18 19  2  0  0  0
 18 20  1  0  0  0
 20 21  2  0  0  0
  1  2  1  0  0  0
  1  6  1  0  0  0
  1 20  1  0  0  0
  2  3  2  0  0  0
  2  4  1  0  0  0
  4  5  1  0  0  0
  4 11  1  0  0  0
  5  6  1  0  0  0
  5 10  2  0  0  0
  6  7  2  0  0  0
  7  8  1  0  0  0
  8  9  2  0  0  0
  8 22  1  0  0  0
  9 10  1  0  0  0
 22 23  1  0  0  0
 22 24  1  0  0  0
 22 25  1  0  0  0
 23 26  1  0  0  0
 24 27  1  0  0  0
 25 28  1  0  0  0
M  END
> <minimizedAffinity>
-7.44209

$$$$
