data/CDK2/cocry_dataset/1fin_ATP_LIG.pdb
 OpenBabel03092321123D

 39 41  0  0  0  0  0  0  0  0999 V2000
   -8.4670  207.6365  114.1158 C   0  0  1  0  0  0  0  0  0  0  0  0
   -9.2349  206.4202  113.9643 O   0  0  0  0  0  0  0  0  0  0  0  0
  -10.0371  206.5143  112.7739 C   0  0  2  0  0  0  0  0  0  0  0  0
  -10.1192  207.9869  112.3832 C   0  0  1  0  0  0  0  0  0  0  0  0
   -8.8188  208.5504  112.9362 C   0  0  2  0  0  0  0  0  0  0  0  0
   -7.8214  208.5107  111.9013 O   0  0  0  0  0  0  0  0  0  0  0  0
  -10.2299  208.1598  110.9693 O   0  0  0  0  0  0  0  0  0  0  0  0
   -7.4444  207.6131  111.8553 H   0  0  0  0  0  0  0  0  0  0  0  0
   -9.4406  208.6675  110.6892 H   0  0  0  0  0  0  0  0  0  0  0  0
  -11.3245  205.8950  113.0126 N   0  0  0  0  0  0  0  0  0  0  0  0
  -11.6625  205.1492  114.1127 C   0  0  0  0  0  0  0  0  0  0  0  0
  -12.8817  204.6588  114.0211 N   0  0  0  0  0  0  0  0  0  0  0  0
  -13.3384  205.0837  112.7898 C   0  0  0  0  0  0  0  0  0  0  0  0
  -14.5400  204.8649  112.0965 C   0  0  0  0  0  0  0  0  0  0  0  0
  -15.5804  204.0970  112.6052 N   0  0  0  0  0  0  0  0  0  0  0  0
  -14.6968  205.4316  110.8781 N   0  0  0  0  0  0  0  0  0  0  0  0
  -13.6780  206.1617  110.3762 C   0  0  0  0  0  0  0  0  0  0  0  0
  -12.4874  206.4408  110.9421 N   0  0  0  0  0  0  0  0  0  0  0  0
  -12.3887  205.8683  112.1546 C   0  0  0  0  0  0  0  0  0  0  0  0
  -15.5383  203.9904  113.6127 H   0  0  0  0  0  0  0  0  0  0  0  0
  -16.4712  204.3445  112.1961 H   0  0  0  0  0  0  0  0  0  0  0  0
   -8.7532  208.2850  115.4777 C   0  0  0  0  0  0  0  0  0  0  0  0
  -10.1296  208.6406  115.5644 O   0  0  0  0  0  0  0  0  0  0  0  0
  -11.0430  207.8726  116.6428 P   0  0  1  0  0  0  0  0  0  0  0  0
  -10.4786  206.5848  117.1622 O   0  0  0  0  0  0  0  0  0  0  0  0
  -11.1523  208.9478  117.8276 O   0  0  0  0  0  0  0  0  0  0  0  0
  -10.7560  208.5853  118.6413 H   0  0  0  0  0  0  0  0  0  0  0  0
  -12.5137  207.8354  116.0260 O   0  0  0  0  0  0  0  0  0  0  0  0
  -13.8320  206.9886  116.7595 P   0  0  2  0  0  0  0  0  0  0  0  0
  -14.6946  207.2458  115.5228 O   0  0  0  0  0  0  0  0  0  0  0  0
  -14.1448  208.2320  117.7736 O   0  0  0  0  0  0  0  0  0  0  0  0
  -14.7665  208.8478  117.3180 H   0  0  0  0  0  0  0  0  0  0  0  0
  -15.1501  206.1417  117.4929 O   0  0  0  0  0  0  0  0  0  0  0  0
  -15.0148  204.6493  116.8866 P   0  0  0  0  0  0  0  0  0  0  0  0
  -15.6581  203.5530  117.6646 O   0  0  0  0  0  0  0  0  0  0  0  0
  -15.4281  204.7239  115.3524 O   0  0  0  0  0  0  0  0  0  0  0  0
  -13.4489  204.3708  116.7348 O   0  0  0  0  0  0  0  0  0  0  0  0
  -14.7784  205.2350  114.8290 H   0  0  0  0  0  0  0  0  0  0  0  0
  -13.2773  203.4073  116.7347 H   0  0  0  0  0  0  0  0  0  0  0  0
  1 22  1  1  0  0  0
  1  2  1  0  0  0  0
  1  5  1  0  0  0  0
  2  3  1  0  0  0  0
  3  4  1  0  0  0  0
  3 10  1  1  0  0  0
  4  5  1  0  0  0  0
  4  7  1  6  0  0  0
  5  6  1  6  0  0  0
  6  8  1  0  0  0  0
  7  9  1  0  0  0  0
 10 11  1  0  0  0  0
 10 19  1  0  0  0  0
 11 12  2  0  0  0  0
 12 13  1  0  0  0  0
 13 14  1  0  0  0  0
 13 19  2  0  0  0  0
 14 15  1  0  0  0  0
 14 16  2  0  0  0  0
 15 20  1  0  0  0  0
 15 21  1  0  0  0  0
 16 17  1  0  0  0  0
 17 18  2  0  0  0  0
 18 19  1  0  0  0  0
 23 22  1  0  0  0  0
 24 26  1  0  0  0  0
 24 23  1  0  0  0  0
 24 25  2  1  0  0  0
 24 28  1  0  0  0  0
 26 27  1  0  0  0  0
 29 30  2  6  0  0  0
 29 31  1  0  0  0  0
 29 28  1  0  0  0  0
 31 32  1  0  0  0  0
 33 29  1  0  0  0  0
 34 35  2  0  0  0  0
 34 36  1  0  0  0  0
 34 37  1  0  0  0  0
 34 33  1  0  0  0  0
 36 38  1  0  0  0  0
 37 39  1  0  0  0  0
M  END
>  <minimizedAffinity>
-7.79054

$$$$
