data/CDK2/cocry_dataset/1fin_ATP_LIG.pdb
 OpenBabel03092321123D

 39 41  0  0  0  0  0  0  0  0999 V2000
  -11.0264  204.6775  116.7943 C   0  0  1  0  0  0  0  0  0  0  0  0
  -11.2787  204.2916  115.4233 O   0  0  0  0  0  0  0  0  0  0  0  0
  -10.7114  205.2785  114.5437 C   0  0  2  0  0  0  0  0  0  0  0  0
  -10.4679  206.5444  115.3600 C   0  0  1  0  0  0  0  0  0  0  0  0
  -10.2484  205.9981  116.7627 C   0  0  2  0  0  0  0  0  0  0  0  0
   -8.8385  205.8037  116.9671 O   0  0  0  0  0  0  0  0  0  0  0  0
   -9.3420  207.2817  114.8805 O   0  0  0  0  0  0  0  0  0  0  0  0
   -8.5715  204.9564  116.5662 H   0  0  0  0  0  0  0  0  0  0  0  0
   -8.6950  207.3094  115.6152 H   0  0  0  0  0  0  0  0  0  0  0  0
  -11.5889  205.4694  113.4073 N   0  0  0  0  0  0  0  0  0  0  0  0
  -12.8035  204.8603  113.2224 C   0  0  0  0  0  0  0  0  0  0  0  0
  -13.3432  205.1769  112.0631 N   0  0  0  0  0  0  0  0  0  0  0  0
  -12.4175  206.0046  111.4604 C   0  0  0  0  0  0  0  0  0  0  0  0
  -12.3864  206.6400  110.2083 C   0  0  0  0  0  0  0  0  0  0  0  0
  -13.4061  206.5216  109.2718 N   0  0  0  0  0  0  0  0  0  0  0  0
  -11.3169  207.4085  109.8989 N   0  0  0  0  0  0  0  0  0  0  0  0
  -10.3177  207.5077  110.8015 C   0  0  0  0  0  0  0  0  0  0  0  0
  -10.2344  206.9504  112.0254 N   0  0  0  0  0  0  0  0  0  0  0  0
  -11.3261  206.2112  112.2892 C   0  0  0  0  0  0  0  0  0  0  0  0
  -14.2863  206.2261  109.6796 H   0  0  0  0  0  0  0  0  0  0  0  0
  -13.4250  207.3018  108.6292 H   0  0  0  0  0  0  0  0  0  0  0  0
  -12.3454  204.7815  117.5732 C   0  0  0  0  0  0  0  0  0  0  0  0
  -13.2036  203.7020  117.2176 O   0  0  0  0  0  0  0  0  0  0  0  0
  -14.6553  204.0542  116.6216 P   0  0  1  0  0  0  0  0  0  0  0  0
  -15.2550  203.0090  115.7301 O   0  0  0  0  0  0  0  0  0  0  0  0
  -15.5391  204.2241  117.9490 O   0  0  0  0  0  0  0  0  0  0  0  0
  -16.2518  203.5588  117.9597 H   0  0  0  0  0  0  0  0  0  0  0  0
  -14.5456  205.5377  116.0453 O   0  0  0  0  0  0  0  0  0  0  0  0
  -15.6290  206.1803  114.8594 P   0  0  2  0  0  0  0  0  0  0  0  0
  -15.7653  207.4690  115.6718 O   0  0  0  0  0  0  0  0  0  0  0  0
  -16.8492  205.2170  115.3650 O   0  0  0  0  0  0  0  0  0  0  0  0
  -17.3287  205.6866  116.0880 H   0  0  0  0  0  0  0  0  0  0  0  0
  -16.7122  206.8228  113.6734 O   0  0  0  0  0  0  0  0  0  0  0  0
  -16.9038  205.5932  112.6417 P   0  0  0  0  0  0  0  0  0  0  0  0
  -16.8046  205.9190  111.1908 O   0  0  0  0  0  0  0  0  0  0  0  0
  -15.9618  204.4108  113.1364 O   0  0  0  0  0  0  0  0  0  0  0  0
  -18.3334  204.9581  112.9667 O   0  0  0  0  0  0  0  0  0  0  0  0
  -16.2700  204.0365  113.9862 H   0  0  0  0  0  0  0  0  0  0  0  0
  -18.6744  204.4796  112.1840 H   0  0  0  0  0  0  0  0  0  0  0  0
  1 22  1  1  0  0  0
  1  2  1  0  0  0  0
  1  5  1  0  0  0  0
  2  3  1  0  0  0  0
  3  4  1  0  0  0  0
  3 10  1  6  0  0  0
  4  5  1  0  0  0  0
  4  7  1  6  0  0  0
  5  6  1  6  0  0  0
  6  8  1  0  0  0  0
  7  9  1  0  0  0  0
 10 11  1  0  0  0  0
 10 19  1  0  0  0  0
 11 12  2  0  0  0  0
 12 13  1  0  0  0  0
 13 14  1  0  0  0  0
 13 19  2  0  0  0  0
 14 15  1  0  0  0  0
 14 16  2  0  0  0  0
 15 20  1  0  0  0  0
 15 21  1  0  0  0  0
 16 17  1  0  0  0  0
 17 18  2  0  0  0  0
 18 19  1  0  0  0  0
 23 22  1  0  0  0  0
 24 26  1  0  0  0  0
 24 23  1  0  0  0  0
 24 25  2  6  0  0  0
 24 28  1  0  0  0  0
 26 27  1  0  0  0  0
 29 30  2  1  0  0  0
 29 31  1  0  0  0  0
 29 28  1  0  0  0  0
 31 32  1  0  0  0  0
 33 29  1  0  0  0  0
 34 35  2  0  0  0  0
 34 36  1  0  0  0  0
 34 37  1  0  0  0  0
 34 33  1  0  0  0  0
 36 38  1  0  0  0  0
 37 39  1  0  0  0  0
M  END
>  <minimizedAffinity>
-8.05345

$$$$
