data/CDK2/cocry_dataset/1fin_ATP_LIG.pdb
 OpenBabel03092321123D

 39 41  0  0  0  0  0  0  0  0999 V2000
  -11.5973  205.4730  119.0457 C   0  0  1  0  0  0  0  0  0  0  0  0
  -10.7164  205.3150  117.9094 O   0  0  0  0  0  0  0  0  0  0  0  0
  -10.4124  206.6113  117.3647 C   0  0  2  0  0  0  0  0  0  0  0  0
  -11.4581  207.5923  117.8865 C   0  0  1  0  0  0  0  0  0  0  0  0
  -11.8591  206.9738  119.2172 C   0  0  2  0  0  0  0  0  0  0  0  0
  -11.0511  207.5514  120.2569 O   0  0  0  0  0  0  0  0  0  0  0  0
  -10.9273  208.9103  118.0365 O   0  0  0  0  0  0  0  0  0  0  0  0
  -10.1869  207.1010  120.2773 H   0  0  0  0  0  0  0  0  0  0  0  0
  -11.0018  209.1329  118.9873 H   0  0  0  0  0  0  0  0  0  0  0  0
  -10.3553  206.5235  115.9201 N   0  0  0  0  0  0  0  0  0  0  0  0
  -10.7455  205.4456  115.1675 C   0  0  0  0  0  0  0  0  0  0  0  0
  -10.5141  205.6300  113.8838 N   0  0  0  0  0  0  0  0  0  0  0  0
   -9.9183  206.8729  113.8105 C   0  0  0  0  0  0  0  0  0  0  0  0
   -9.4065  207.6176  112.7354 C   0  0  0  0  0  0  0  0  0  0  0  0
   -9.4257  207.1651  111.4217 N   0  0  0  0  0  0  0  0  0  0  0  0
   -8.8740  208.8356  112.9870 N   0  0  0  0  0  0  0  0  0  0  0  0
   -8.8383  209.2664  114.2660 C   0  0  0  0  0  0  0  0  0  0  0  0
   -9.2944  208.6477  115.3727 N   0  0  0  0  0  0  0  0  0  0  0  0
   -9.8260  207.4513  115.0666 C   0  0  0  0  0  0  0  0  0  0  0  0
  -10.1108  206.4343  111.2643 H   0  0  0  0  0  0  0  0  0  0  0  0
   -9.3898  207.9259  110.7568 H   0  0  0  0  0  0  0  0  0  0  0  0
  -12.8856  204.6631  118.8419 C   0  0  0  0  0  0  0  0  0  0  0  0
  -12.9177  204.1294  117.5218 O   0  0  0  0  0  0  0  0  0  0  0  0
  -14.3402  204.0390  116.7767 P   0  0  1  0  0  0  0  0  0  0  0  0
  -14.9491  202.6705  116.7178 O   0  0  0  0  0  0  0  0  0  0  0  0
  -15.2540  205.0148  117.6625 O   0  0  0  0  0  0  0  0  0  0  0  0
  -15.9882  204.5108  118.0596 H   0  0  0  0  0  0  0  0  0  0  0  0
  -14.1660  204.8264  115.4003 O   0  0  0  0  0  0  0  0  0  0  0  0
  -15.4244  205.7678  114.6769 P   0  0  2  0  0  0  0  0  0  0  0  0
  -15.1898  206.8805  115.6998 O   0  0  0  0  0  0  0  0  0  0  0  0
  -16.5881  204.8201  115.3250 O   0  0  0  0  0  0  0  0  0  0  0  0
  -16.8076  205.1752  116.2189 H   0  0  0  0  0  0  0  0  0  0  0  0
  -16.6826  206.7092  113.9534 O   0  0  0  0  0  0  0  0  0  0  0  0
  -17.2522  205.7375  112.7938 P   0  0  0  0  0  0  0  0  0  0  0  0
  -17.5205  206.3663  111.4696 O   0  0  0  0  0  0  0  0  0  0  0  0
  -16.3187  204.4502  112.7559 O   0  0  0  0  0  0  0  0  0  0  0  0
  -18.5908  205.0875  113.3756 O   0  0  0  0  0  0  0  0  0  0  0  0
  -16.4174  203.9099  113.5655 H   0  0  0  0  0  0  0  0  0  0  0  0
  -19.1710  204.7992  112.6421 H   0  0  0  0  0  0  0  0  0  0  0  0
  1 22  1  6  0  0  0
  1  2  1  0  0  0  0
  1  5  1  0  0  0  0
  2  3  1  0  0  0  0
  3  4  1  0  0  0  0
  3 10  1  6  0  0  0
  4  5  1  0  0  0  0
  4  7  1  1  0  0  0
  5  6  1  1  0  0  0
  6  8  1  0  0  0  0
  7  9  1  0  0  0  0
 10 11  1  0  0  0  0
 10 19  1  0  0  0  0
 11 12  2  0  0  0  0
 12 13  1  0  0  0  0
 13 14  1  0  0  0  0
 13 19  2  0  0  0  0
 14 15  1  0  0  0  0
 14 16  2  0  0  0  0
 15 20  1  0  0  0  0
 15 21  1  0  0  0  0
 16 17  1  0  0  0  0
 17 18  2  0  0  0  0
 18 19  1  0  0  0  0
 23 22  1  0  0  0  0
 24 26  1  0  0  0  0
 24 23  1  0  0  0  0
 24 25  2  6  0  0  0
 24 28  1  0  0  0  0
 26 27  1  0  0  0  0
 29 30  2  1  0  0  0
 29 31  1  0  0  0  0
 29 28  1  0  0  0  0
 31 32  1  0  0  0  0
 33 29  1  0  0  0  0
 34 35  2  0  0  0  0
 34 36  1  0  0  0  0
 34 37  1  0  0  0  0
 34 33  1  0  0  0  0
 36 38  1  0  0  0  0
 37 39  1  0  0  0  0
M  END
>  <minimizedAffinity>
-7.76318

$$$$
