data/CDK2/cocry_dataset/1fin_ATP_LIG.pdb


 39 41  0  0  0  0  0  0  0  0999 V2000
  -11.0264  204.6775  116.7943 C   0  0  0  0  0  0  0  0  0  0  0  0
  -11.2787  204.2916  115.4233 O   0  0  0  0  0  0  0  0  0  0  0  0
  -10.7114  205.2785  114.5437 C   0  0  0  0  0  0  0  0  0  0  0  0
  -10.4679  206.5444  115.3600 C   0  0  0  0  0  0  0  0  0  0  0  0
  -10.2484  205.9981  116.7627 C   0  0  0  0  0  0  0  0  0  0  0  0
   -8.8385  205.8037  116.9671 O   0  0  0  0  0  0  0  0  0  0  0  0
   -9.3420  207.2817  114.8805 O   0  0  0  0  0  0  0  0  0  0  0  0
   -8.5715  204.9564  116.5662 H   0  0  0  0  0  0  0  0  0  0  0  0
   -8.6950  207.3094  115.6152 H   0  0  0  0  0  0  0  0  0  0  0  0
  -11.5889  205.4694  113.4073 N   0  0  0  0  0  0  0  0  0  0  0  0
  -12.8035  204.8603  113.2224 C   0  0  0  0  0  0  0  0  0  0  0  0
  -13.3432  205.1769  112.0631 N   0  0  0  0  0  0  0  0  0  0  0  0
  -12.4175  206.0046  111.4604 C   0  0  0  0  0  0  0  0  0  0  0  0
  -12.3864  206.6400  110.2083 C   0  0  0  0  0  0  0  0  0  0  0  0
  -13.4061  206.5216  109.2718 N   0  0  0  0  0  0  0  0  0  0  0  0
  -11.3169  207.4085  109.8989 N   0  0  0  0  0  0  0  0  0  0  0  0
  -10.3177  207.5077  110.8015 C   0  0  0  0  0  0  0  0  0  0  0  0
  -10.2344  206.9504  112.0254 N   0  0  0  0  0  0  0  0  0  0  0  0
  -11.3261  206.2112  112.2892 C   0  0  0  0  0  0  0  0  0  0  0  0
  -14.2863  206.2261  109.6796 H   0  0  0  0  0  0  0  0  0  0  0  0
  -13.4250  207.3018  108.6292 H   0  0  0  0  0  0  0  0  0  0  0  0
  -12.3454  204.7815  117.5732 C   0  0  0  0  0  0  0  0  0  0  0  0
  -13.2036  203.7020  117.2176 O   0  0  0  0  0  0  0  0  0  0  0  0
  -14.6553  204.0542  116.6216 P   0  0  0  0  0  0  0  0  0  0  0  0
  -15.2550  203.0090  115.7301 O   0  0  0  0  0  0  0  0  0  0  0  0
  -15.5391  204.2241  117.9490 O   0  0  0  0  0  0  0  0  0  0  0  0
  -16.2518  203.5588  117.9597 H   0  0  0  0  0  0  0  0  0  0  0  0
  -14.5456  205.5377  116.0453 O   0  0  0  0  0  0  0  0  0  0  0  0
  -15.6290  206.1803  114.8594 P   0  0  0  0  0  0  0  0  0  0  0  0
  -15.7653  207.4690  115.6718 O   0  0  0  0  0  0  0  0  0  0  0  0
  -16.8492  205.2170  115.3650 O   0  0  0  0  0  0  0  0  0  0  0  0
  -17.3287  205.6866  116.0880 H   0  0  0  0  0  0  0  0  0  0  0  0
  -16.7122  206.8228  113.6734 O   0  0  0  0  0  0  0  0  0  0  0  0
  -16.9038  205.5932  112.6417 P   0  0  0  0  0  0  0  0  0  0  0  0
  -16.8046  205.9190  111.1908 O   0  0  0  0  0  0  0  0  0  0  0  0
  -15.9618  204.4108  113.1364 O   0  0  0  0  0  0  0  0  0  0  0  0
  -18.3334  204.9581  112.9667 O   0  0  0  0  0  0  0  0  0  0  0  0
  -16.2700  204.0365  113.9862 H   0  0  0  0  0  0  0  0  0  0  0  0
  -18.6744  204.4796  112.1840 H   0  0  0  0  0  0  0  0  0  0  0  0
 34 35  2  0  0  0
 34 36  1  0  0  0
 34 37  1  0  0  0
 34 33  1  0  0  0
 36 38  1  0  0  0
 37 39  1  0  0  0
 33 29  1  0  0  0
 29 30  2  0  0  0
 29 31  1  0  0  0
 29 28  1  0  0  0
 31 32  1  0  0  0
 24 26  1  0  0  0
 24 23  1  0  0  0
 24 25  2  0  0  0
 24 28  1  0  0  0
 26 27  1  0  0  0
 23 22  1  0  0  0
 22  1  1  0  0  0
  1  2  1  0  0  0
  1  5  1  0  0  0
  2  3  1  0  0  0
  3  4  1  0  0  0
  3 10  1  0  0  0
  4  5  1  0  0  0
  4  7  1  0  0  0
  5  6  1  0  0  0
  6  8  1  0  0  0
  7  9  1  0  0  0
 10 11  1  0  0  0
 10 19  1  0  0  0
 11 12  2  0  0  0
 12 13  1  0  0  0
 13 14  1  0  0  0
 13 19  2  0  0  0
 14 15  1  0  0  0
 14 16  2  0  0  0
 15 20  1  0  0  0
 15 21  1  0  0  0
 16 17  1  0  0  0
 17 18  2  0  0  0
 18 19  1  0  0  0
M  END
> <minimizedAffinity>
-8.05345

$$$$
data/CDK2/cocry_dataset/1fin_ATP_LIG.pdb


 39 41  0  0  0  0  0  0  0  0999 V2000
   -8.4670  207.6365  114.1158 C   0  0  0  0  0  0  0  0  0  0  0  0
   -9.2349  206.4202  113.9643 O   0  0  0  0  0  0  0  0  0  0  0  0
  -10.0371  206.5143  112.7739 C   0  0  0  0  0  0  0  0  0  0  0  0
  -10.1192  207.9869  112.3832 C   0  0  0  0  0  0  0  0  0  0  0  0
   -8.8188  208.5504  112.9362 C   0  0  0  0  0  0  0  0  0  0  0  0
   -7.8214  208.5107  111.9013 O   0  0  0  0  0  0  0  0  0  0  0  0
  -10.2299  208.1598  110.9693 O   0  0  0  0  0  0  0  0  0  0  0  0
   -7.4444  207.6131  111.8553 H   0  0  0  0  0  0  0  0  0  0  0  0
   -9.4406  208.6675  110.6892 H   0  0  0  0  0  0  0  0  0  0  0  0
  -11.3245  205.8950  113.0126 N   0  0  0  0  0  0  0  0  0  0  0  0
  -11.6625  205.1492  114.1127 C   0  0  0  0  0  0  0  0  0  0  0  0
  -12.8817  204.6588  114.0211 N   0  0  0  0  0  0  0  0  0  0  0  0
  -13.3384  205.0837  112.7898 C   0  0  0  0  0  0  0  0  0  0  0  0
  -14.5400  204.8649  112.0965 C   0  0  0  0  0  0  0  0  0  0  0  0
  -15.5804  204.0970  112.6052 N   0  0  0  0  0  0  0  0  0  0  0  0
  -14.6968  205.4316  110.8781 N   0  0  0  0  0  0  0  0  0  0  0  0
  -13.6780  206.1617  110.3762 C   0  0  0  0  0  0  0  0  0  0  0  0
  -12.4874  206.4408  110.9421 N   0  0  0  0  0  0  0  0  0  0  0  0
  -12.3887  205.8683  112.1546 C   0  0  0  0  0  0  0  0  0  0  0  0
  -15.5383  203.9904  113.6127 H   0  0  0  0  0  0  0  0  0  0  0  0
  -16.4712  204.3445  112.1961 H   0  0  0  0  0  0  0  0  0  0  0  0
   -8.7532  208.2850  115.4777 C   0  0  0  0  0  0  0  0  0  0  0  0
  -10.1296  208.6406  115.5644 O   0  0  0  0  0  0  0  0  0  0  0  0
  -11.0430  207.8726  116.6428 P   0  0  0  0  0  0  0  0  0  0  0  0
  -10.4786  206.5848  117.1622 O   0  0  0  0  0  0  0  0  0  0  0  0
  -11.1523  208.9478  117.8276 O   0  0  0  0  0  0  0  0  0  0  0  0
  -10.7560  208.5853  118.6413 H   0  0  0  0  0  0  0  0  0  0  0  0
  -12.5137  207.8354  116.0260 O   0  0  0  0  0  0  0  0  0  0  0  0
  -13.8320  206.9886  116.7595 P   0  0  0  0  0  0  0  0  0  0  0  0
  -14.6946  207.2458  115.5228 O   0  0  0  0  0  0  0  0  0  0  0  0
  -14.1448  208.2320  117.7736 O   0  0  0  0  0  0  0  0  0  0  0  0
  -14.7665  208.8478  117.3180 H   0  0  0  0  0  0  0  0  0  0  0  0
  -15.1501  206.1417  117.4929 O   0  0  0  0  0  0  0  0  0  0  0  0
  -15.0148  204.6493  116.8866 P   0  0  0  0  0  0  0  0  0  0  0  0
  -15.6581  203.5530  117.6646 O   0  0  0  0  0  0  0  0  0  0  0  0
  -15.4281  204.7239  115.3524 O   0  0  0  0  0  0  0  0  0  0  0  0
  -13.4489  204.3708  116.7348 O   0  0  0  0  0  0  0  0  0  0  0  0
  -14.7784  205.2350  114.8290 H   0  0  0  0  0  0  0  0  0  0  0  0
  -13.2773  203.4073  116.7347 H   0  0  0  0  0  0  0  0  0  0  0  0
 34 35  2  0  0  0
 34 36  1  0  0  0
 34 37  1  0  0  0
 34 33  1  0  0  0
 36 38  1  0  0  0
 37 39  1  0  0  0
 33 29  1  0  0  0
 29 30  2  0  0  0
 29 31  1  0  0  0
 29 28  1  0  0  0
 31 32  1  0  0  0
 24 26  1  0  0  0
 24 23  1  0  0  0
 24 25  2  0  0  0
 24 28  1  0  0  0
 26 27  1  0  0  0
 23 22  1  0  0  0
 22  1  1  0  0  0
  1  2  1  0  0  0
  1  5  1  0  0  0
  2  3  1  0  0  0
  3  4  1  0  0  0
  3 10  1  0  0  0
  4  5  1  0  0  0
  4  7  1  0  0  0
  5  6  1  0  0  0
  6  8  1  0  0  0
  7  9  1  0  0  0
 10 11  1  0  0  0
 10 19  1  0  0  0
 11 12  2  0  0  0
 12 13  1  0  0  0
 13 14  1  0  0  0
 13 19  2  0  0  0
 14 15  1  0  0  0
 14 16  2  0  0  0
 15 20  1  0  0  0
 15 21  1  0  0  0
 16 17  1  0  0  0
 17 18  2  0  0  0
 18 19  1  0  0  0
M  END
> <minimizedAffinity>
-7.79054

$$$$
data/CDK2/cocry_dataset/1fin_ATP_LIG.pdb


 39 41  0  0  0  0  0  0  0  0999 V2000
  -11.5973  205.4730  119.0457 C   0  0  0  0  0  0  0  0  0  0  0  0
  -10.7164  205.3150  117.9094 O   0  0  0  0  0  0  0  0  0  0  0  0
  -10.4124  206.6113  117.3647 C   0  0  0  0  0  0  0  0  0  0  0  0
  -11.4581  207.5923  117.8865 C   0  0  0  0  0  0  0  0  0  0  0  0
  -11.8591  206.9738  119.2172 C   0  0  0  0  0  0  0  0  0  0  0  0
  -11.0511  207.5514  120.2569 O   0  0  0  0  0  0  0  0  0  0  0  0
  -10.9273  208.9103  118.0365 O   0  0  0  0  0  0  0  0  0  0  0  0
  -10.1869  207.1010  120.2773 H   0  0  0  0  0  0  0  0  0  0  0  0
  -11.0018  209.1329  118.9873 H   0  0  0  0  0  0  0  0  0  0  0  0
  -10.3553  206.5235  115.9201 N   0  0  0  0  0  0  0  0  0  0  0  0
  -10.7455  205.4456  115.1675 C   0  0  0  0  0  0  0  0  0  0  0  0
  -10.5141  205.6300  113.8838 N   0  0  0  0  0  0  0  0  0  0  0  0
   -9.9183  206.8729  113.8105 C   0  0  0  0  0  0  0  0  0  0  0  0
   -9.4065  207.6176  112.7354 C   0  0  0  0  0  0  0  0  0  0  0  0
   -9.4257  207.1651  111.4217 N   0  0  0  0  0  0  0  0  0  0  0  0
   -8.8740  208.8356  112.9870 N   0  0  0  0  0  0  0  0  0  0  0  0
   -8.8383  209.2664  114.2660 C   0  0  0  0  0  0  0  0  0  0  0  0
   -9.2944  208.6477  115.3727 N   0  0  0  0  0  0  0  0  0  0  0  0
   -9.8260  207.4513  115.0666 C   0  0  0  0  0  0  0  0  0  0  0  0
  -10.1108  206.4343  111.2643 H   0  0  0  0  0  0  0  0  0  0  0  0
   -9.3898  207.9259  110.7568 H   0  0  0  0  0  0  0  0  0  0  0  0
  -12.8856  204.6631  118.8419 C   0  0  0  0  0  0  0  0  0  0  0  0
  -12.9177  204.1294  117.5218 O   0  0  0  0  0  0  0  0  0  0  0  0
  -14.3402  204.0390  116.7767 P   0  0  0  0  0  0  0  0  0  0  0  0
  -14.9491  202.6705  116.7178 O   0  0  0  0  0  0  0  0  0  0  0  0
  -15.2540  205.0148  117.6625 O   0  0  0  0  0  0  0  0  0  0  0  0
  -15.9882  204.5108  118.0596 H   0  0  0  0  0  0  0  0  0  0  0  0
  -14.1660  204.8264  115.4003 O   0  0  0  0  0  0  0  0  0  0  0  0
  -15.4244  205.7678  114.6769 P   0  0  0  0  0  0  0  0  0  0  0  0
  -15.1898  206.8805  115.6998 O   0  0  0  0  0  0  0  0  0  0  0  0
  -16.5881  204.8201  115.3250 O   0  0  0  0  0  0  0  0  0  0  0  0
  -16.8076  205.1752  116.2189 H   0  0  0  0  0  0  0  0  0  0  0  0
  -16.6826  206.7092  113.9534 O   0  0  0  0  0  0  0  0  0  0  0  0
  -17.2522  205.7375  112.7938 P   0  0  0  0  0  0  0  0  0  0  0  0
  -17.5205  206.3663  111.4696 O   0  0  0  0  0  0  0  0  0  0  0  0
  -16.3187  204.4502  112.7559 O   0  0  0  0  0  0  0  0  0  0  0  0
  -18.5908  205.0875  113.3756 O   0  0  0  0  0  0  0  0  0  0  0  0
  -16.4174  203.9099  113.5655 H   0  0  0  0  0  0  0  0  0  0  0  0
  -19.1710  204.7992  112.6421 H   0  0  0  0  0  0  0  0  0  0  0  0
 34 35  2  0  0  0
 34 36  1  0  0  0
 34 37  1  0  0  0
 34 33  1  0  0  0
 36 38  1  0  0  0
 37 39  1  0  0  0
 33 29  1  0  0  0
 29 30  2  0  0  0
 29 31  1  0  0  0
 29 28  1  0  0  0
 31 32  1  0  0  0
 24 26  1  0  0  0
 24 23  1  0  0  0
 24 25  2  0  0  0
 24 28  1  0  0  0
 26 27  1  0  0  0
 23 22  1  0  0  0
 22  1  1  0  0  0
  1  2  1  0  0  0
  1  5  1  0  0  0
  2  3  1  0  0  0
  3  4  1  0  0  0
  3 10  1  0  0  0
  4  5  1  0  0  0
  4  7  1  0  0  0
  5  6  1  0  0  0
  6  8  1  0  0  0
  7  9  1  0  0  0
 10 11  1  0  0  0
 10 19  1  0  0  0
 11 12  2  0  0  0
 12 13  1  0  0  0
 13 14  1  0  0  0
 13 19  2  0  0  0
 14 15  1  0  0  0
 14 16  2  0  0  0
 15 20  1  0  0  0
 15 21  1  0  0  0
 16 17  1  0  0  0
 17 18  2  0  0  0
 18 19  1  0  0  0
M  END
> <minimizedAffinity>
-7.76318

$$$$
