
 OpenBabel07192212403D

 39 41  0  0  0  0  0  0  0  0999 V2000
   -9.7658  203.5840  115.1992 C   0  0  1  0  0  0  0  0  0  0  0  0
   -9.5395  204.4829  116.2920 O   0  0  0  0  0  0  0  0  0  0  0  0
   -8.3902  203.0395  114.7986 C   0  0  1  0  0  0  0  0  0  0  0  0
   -7.8944  203.8493  113.7158 O   0  0  0  0  0  0  0  0  0  0  0  0
   -7.5154  203.3211  116.0695 C   0  0  1  0  0  0  0  0  0  0  0  0
   -6.2229  203.7372  115.5561 O   0  0  0  0  0  0  0  0  0  0  0  0
   -8.1914  204.5918  116.6281 C   0  0  2  0  0  0  0  0  0  0  0  0
   -7.8896  204.7812  113.9850 H   0  0  0  0  0  0  0  0  0  0  0  0
   -6.3437  204.4682  114.9301 H   0  0  0  0  0  0  0  0  0  0  0  0
   -8.1391  204.6557  118.0858 N   0  0  0  0  0  0  0  0  0  0  0  0
   -7.3729  203.8120  118.8138 C   0  0  0  0  0  0  0  0  0  0  0  0
   -7.1216  204.2080  119.9886 N   0  0  0  0  0  0  0  0  0  0  0  0
   -7.7166  205.3757  120.1154 C   0  0  0  0  0  0  0  0  0  0  0  0
   -7.7880  206.2387  121.2137 C   0  0  0  0  0  0  0  0  0  0  0  0
   -7.2479  206.1022  122.4111 N   0  0  0  0  0  0  0  0  0  0  0  0
   -8.5063  207.3646  121.0042 N   0  0  0  0  0  0  0  0  0  0  0  0
   -9.1334  207.5587  119.8170 C   0  0  0  0  0  0  0  0  0  0  0  0
   -9.0901  206.8156  118.7400 N   0  0  0  0  0  0  0  0  0  0  0  0
   -8.3851  205.6977  118.9569 C   0  0  0  0  0  0  0  0  0  0  0  0
   -7.3834  206.7979  123.0944 H   0  0  0  0  0  0  0  0  0  0  0  0
   -6.7099  205.3047  122.6204 H   0  0  0  0  0  0  0  0  0  0  0  0
  -10.6871  202.4438  115.6516 C   0  0  0  0  0  0  0  0  0  0  0  0
  -11.3339  202.9960  116.8148 O   0  0  0  0  0  0  0  0  0  0  0  0
  -11.4288  202.1232  118.1423 P   0  0  2  0  0  0  0  0  0  0  0  0
  -10.0179  201.9207  118.6451 O   0  0  0  0  0  0  0  0  0  0  0  0
  -12.2115  200.9404  117.8966 O   0  0  0  0  0  0  0  0  0  0  0  0
   -9.5430  201.3252  118.0444 H   0  0  0  0  0  0  0  0  0  0  0  0
  -12.0117  203.1338  119.2878 O   0  0  0  0  0  0  0  0  0  0  0  0
  -12.1427  204.7298  119.1557 P   0  0  2  0  0  0  0  0  0  0  0  0
  -13.5863  205.0450  119.1919 O   0  0  0  0  0  0  0  0  0  0  0  0
  -11.3775  205.2288  118.0210 O   0  0  0  0  0  0  0  0  0  0  0  0
  -11.8424  205.0130  117.1975 H   0  0  0  0  0  0  0  0  0  0  0  0
  -11.4505  205.0410  120.5567 O   0  0  0  0  0  0  0  0  0  0  0  0
  -10.8726  204.0425  121.6337 P   0  0  0  0  0  0  0  0  0  0  0  0
   -9.8351  203.1814  121.0831 O   0  0  0  0  0  0  0  0  0  0  0  0
  -10.4964  204.7828  122.8662 O   0  0  0  0  0  0  0  0  0  0  0  0
  -12.0206  203.1165  121.9892 O   0  0  0  0  0  0  0  0  0  0  0  0
   -9.5083  202.5857  121.7753 H   0  0  0  0  0  0  0  0  0  0  0  0
  -12.7497  203.6347  122.3643 H   0  0  0  0  0  0  0  0  0  0  0  0
  1 22  1  1  0  0  0
  1  3  1  0  0  0  0
  2  1  1  0  0  0  0
  3  4  1  6  0  0  0
  4  8  1  0  0  0  0
  5  6  1  6  0  0  0
  5  3  1  0  0  0  0
  6  9  1  0  0  0  0
  7 10  1  1  0  0  0
  7  2  1  0  0  0  0
  7  5  1  0  0  0  0
 10 11  1  0  0  0  0
 12 11  2  0  0  0  0
 13 19  1  0  0  0  0
 13 12  1  0  0  0  0
 14 13  2  0  0  0  0
 15 14  1  0  0  0  0
 15 20  1  0  0  0  0
 15 21  1  0  0  0  0
 16 14  1  0  0  0  0
 16 17  2  0  0  0  0
 17 18  1  0  0  0  0
 18 19  2  0  0  0  0
 19 10  1  0  0  0  0
 23 22  1  0  0  0  0
 23 24  1  0  0  0  0
 24 26  2  6  0  0  0
 24 25  1  0  0  0  0
 24 28  1  0  0  0  0
 25 27  1  0  0  0  0
 28 29  1  0  0  0  0
 29 30  2  6  0  0  0
 29 33  1  0  0  0  0
 29 31  1  0  0  0  0
 31 32  1  0  0  0  0
 34 33  1  0  0  0  0
 34 35  1  0  0  0  0
 35 38  1  0  0  0  0
 36 34  2  0  0  0  0
 37 34  1  0  0  0  0
 37 39  1  0  0  0  0
M  END
>  <minimizedAffinity>
-0.00065

$$$$
