
 OpenBabel07192212403D

 39 41  0  0  0  0  0  0  0  0999 V2000
  -10.4491  205.7342  117.9064 C   0  0  1  0  0  0  0  0  0  0  0  0
  -10.9850  206.6843  116.9208 O   0  0  0  0  0  0  0  0  0  0  0  0
  -11.7120  204.9786  118.3272 C   0  0  1  0  0  0  0  0  0  0  0  0
  -11.5571  204.2196  119.5322 O   0  0  0  0  0  0  0  0  0  0  0  0
  -12.7383  206.1113  118.4505 C   0  0  1  0  0  0  0  0  0  0  0  0
  -12.9549  206.6438  119.7505 O   0  0  0  0  0  0  0  0  0  0  0  0
  -12.1914  207.1887  117.5131 C   0  0  2  0  0  0  0  0  0  0  0  0
  -11.2938  204.8105  120.2550 H   0  0  0  0  0  0  0  0  0  0  0  0
  -12.1278  207.0235  120.0862 H   0  0  0  0  0  0  0  0  0  0  0  0
  -13.2969  207.4947  116.6115 N   0  0  0  0  0  0  0  0  0  0  0  0
  -14.5897  207.6886  117.0159 C   0  0  0  0  0  0  0  0  0  0  0  0
  -15.4105  208.0544  116.0448 N   0  0  0  0  0  0  0  0  0  0  0  0
  -14.5829  208.1558  114.9294 C   0  0  0  0  0  0  0  0  0  0  0  0
  -14.8596  208.4923  113.5829 C   0  0  0  0  0  0  0  0  0  0  0  0
  -16.0963  208.8063  113.1687 N   0  0  0  0  0  0  0  0  0  0  0  0
  -13.8078  208.5051  112.7210 N   0  0  0  0  0  0  0  0  0  0  0  0
  -12.5814  208.1954  113.1835 C   0  0  0  0  0  0  0  0  0  0  0  0
  -12.2026  207.8663  114.4243 N   0  0  0  0  0  0  0  0  0  0  0  0
  -13.2621  207.8537  115.2676 C   0  0  0  0  0  0  0  0  0  0  0  0
  -16.2558  209.0359  112.2247 H   0  0  0  0  0  0  0  0  0  0  0  0
  -16.8444  208.8071  113.8086 H   0  0  0  0  0  0  0  0  0  0  0  0
   -9.2017  204.8832  117.5935 C   0  0  0  0  0  0  0  0  0  0  0  0
   -9.0241  204.4105  116.2318 O   0  0  0  0  0  0  0  0  0  0  0  0
   -9.3734  203.0965  115.5436 P   0  0  2  0  0  0  0  0  0  0  0  0
   -8.5051  201.9963  116.0845 O   0  0  0  0  0  0  0  0  0  0  0  0
   -9.4344  203.2346  114.0437 O   0  0  0  0  0  0  0  0  0  0  0  0
   -7.5784  202.2827  116.0772 H   0  0  0  0  0  0  0  0  0  0  0  0
  -11.0097  203.1284  115.3413 O   0  0  0  0  0  0  0  0  0  0  0  0
  -11.6742  204.3111  114.4162 P   0  0  2  0  0  0  0  0  0  0  0  0
  -12.1293  203.6971  113.1154 O   0  0  0  0  0  0  0  0  0  0  0  0
  -10.6948  205.4535  114.5344 O   0  0  0  0  0  0  0  0  0  0  0  0
   -9.8359  205.1815  114.1749 H   0  0  0  0  0  0  0  0  0  0  0  0
  -13.2474  204.4568  114.9465 O   0  0  0  0  0  0  0  0  0  0  0  0
  -14.8038  204.4011  114.3144 P   0  0  0  0  0  0  0  0  0  0  0  0
  -15.1454  202.9220  114.3272 O   0  0  0  0  0  0  0  0  0  0  0  0
  -14.6501  205.0606  112.9545 O   0  0  0  0  0  0  0  0  0  0  0  0
  -15.7316  205.1374  115.2659 O   0  0  0  0  0  0  0  0  0  0  0  0
  -14.0463  204.5351  112.4067 H   0  0  0  0  0  0  0  0  0  0  0  0
  -15.7781  204.6580  116.1078 H   0  0  0  0  0  0  0  0  0  0  0  0
  1 22  1  6  0  0  0
  2  1  1  0  0  0  0
  3  1  1  0  0  0  0
  3  4  1  1  0  0  0
  4  8  1  0  0  0  0
  5  6  1  1  0  0  0
  5  3  1  0  0  0  0
  6  9  1  0  0  0  0
  7 10  1  6  0  0  0
  7  5  1  0  0  0  0
  7  2  1  0  0  0  0
 11 10  1  0  0  0  0
 12 11  2  0  0  0  0
 13 19  1  0  0  0  0
 13 12  1  0  0  0  0
 14 13  2  0  0  0  0
 15 14  1  0  0  0  0
 15 20  1  0  0  0  0
 15 21  1  0  0  0  0
 16 14  1  0  0  0  0
 16 17  2  0  0  0  0
 17 18  1  0  0  0  0
 18 19  2  0  0  0  0
 19 10  1  0  0  0  0
 23 22  1  0  0  0  0
 23 24  1  0  0  0  0
 24 26  2  6  0  0  0
 24 28  1  0  0  0  0
 24 25  1  0  0  0  0
 25 27  1  0  0  0  0
 28 29  1  0  0  0  0
 29 30  2  6  0  0  0
 29 31  1  0  0  0  0
 29 33  1  0  0  0  0
 31 32  1  0  0  0  0
 33 34  1  0  0  0  0
 34 37  1  0  0  0  0
 34 36  1  0  0  0  0
 35 34  2  0  0  0  0
 36 38  1  0  0  0  0
 37 39  1  0  0  0  0
M  END
>  <minimizedAffinity>
-0.00097

$$$$
