
 OpenBabel07192212403D

 22 23  0  0  0  0  0  0  0  0999 V2000
  -14.2935  203.2635  115.0606 N   0  0  0  0  0  0  0  0  0  0  0  0
  -14.6840  204.3468  114.3370 C   0  0  0  0  0  0  0  0  0  0  0  0
  -13.7840  204.9699  113.3200 C   0  0  0  0  0  0  0  0  0  0  0  0
  -14.3221  206.1375  112.6479 N   0  0  0  0  0  0  0  0  0  0  0  0
  -13.6174  206.6852  111.7836 O   0  0  0  0  0  0  0  0  0  0  0  0
  -12.5773  204.4206  113.1745 C   0  0  0  0  0  0  0  0  0  0  0  0
  -11.6977  204.8858  112.3369 N   0  0  0  0  0  0  0  0  0  0  0  0
  -12.2764  203.2419  114.0008 N   0  0  0  0  0  0  0  0  0  0  0  0
  -13.0258  202.7194  114.8715 C   0  0  0  0  0  0  0  0  0  0  0  0
  -12.7090  201.6883  115.6122 N   0  0  0  0  0  0  0  0  0  0  0  0
  -13.9348  207.4414  111.3304 H   0  0  0  0  0  0  0  0  0  0  0  0
  -10.8169  204.4533  112.2573 H   0  0  0  0  0  0  0  0  0  0  0  0
  -11.8243  201.2669  115.5168 H   0  0  0  0  0  0  0  0  0  0  0  0
  -13.3552  201.3339  116.2649 H   0  0  0  0  0  0  0  0  0  0  0  0
  -15.9557  204.8634  114.5942 O   0  0  0  0  0  0  0  0  0  0  0  0
  -16.1028  205.5096  115.8871 C   0  0  0  0  0  0  0  0  0  0  0  0
  -16.5851  206.9291  115.5772 C   0  0  0  0  0  0  0  0  0  0  0  0
  -15.4353  207.9565  115.5518 C   0  0  0  0  0  0  0  0  0  0  0  0
  -16.0283  209.3819  115.3440 C   0  0  0  0  0  0  0  0  0  0  0  0
  -16.8186  209.4033  113.9908 C   0  0  0  0  0  0  0  0  0  0  0  0
  -18.0324  208.4466  114.1537 C   0  0  0  0  0  0  0  0  0  0  0  0
  -17.4490  207.0018  114.2869 C   0  0  0  0  0  0  0  0  0  0  0  0
  1  2  2  0  0  0  0
  2 15  1  0  0  0  0
  3  4  2  0  0  0  0
  3  2  1  0  0  0  0
  5  4  1  0  0  0  0
  5 11  1  0  0  0  0
  6  3  1  0  0  0  0
  7  6  2  0  0  0  0
  7 12  1  0  0  0  0
  8  6  1  0  0  0  0
  8  9  2  0  0  0  0
  9  1  1  0  0  0  0
 10  9  1  0  0  0  0
 10 13  1  0  0  0  0
 10 14  1  0  0  0  0
 15 16  1  0  0  0  0
 16 17  1  0  0  0  0
 17 18  1  0  0  0  0
 17 22  1  0  0  0  0
 18 19  1  0  0  0  0
 19 20  1  0  0  0  0
 21 20  1  0  0  0  0
 22 21  1  0  0  0  0
M  END
>  <minimizedAffinity>
-0.00035

$$$$
