


 39 41  0  0  0  0  0  0  0  0999 V2000
   -9.7658  203.5840  115.1992 C   0  0  0  0  0  0  0  0  0  0  0  0
   -9.5395  204.4829  116.2920 O   0  0  0  0  0  0  0  0  0  0  0  0
   -8.3902  203.0395  114.7986 C   0  0  0  0  0  0  0  0  0  0  0  0
   -7.8944  203.8493  113.7158 O   0  0  0  0  0  0  0  0  0  0  0  0
   -7.5154  203.3211  116.0695 C   0  0  0  0  0  0  0  0  0  0  0  0
   -6.2229  203.7372  115.5561 O   0  0  0  0  0  0  0  0  0  0  0  0
   -8.1914  204.5918  116.6281 C   0  0  0  0  0  0  0  0  0  0  0  0
   -7.8896  204.7812  113.9850 H   0  0  0  0  0  0  0  0  0  0  0  0
   -6.3437  204.4682  114.9301 H   0  0  0  0  0  0  0  0  0  0  0  0
   -8.1391  204.6557  118.0858 N   0  0  0  0  0  0  0  0  0  0  0  0
   -7.3729  203.8120  118.8138 C   0  0  0  0  0  0  0  0  0  0  0  0
   -7.1216  204.2080  119.9886 N   0  0  0  0  0  0  0  0  0  0  0  0
   -7.7166  205.3757  120.1154 C   0  0  0  0  0  0  0  0  0  0  0  0
   -7.7880  206.2387  121.2137 C   0  0  0  0  0  0  0  0  0  0  0  0
   -7.2479  206.1022  122.4111 N   0  0  0  0  0  0  0  0  0  0  0  0
   -8.5063  207.3646  121.0042 N   0  0  0  0  0  0  0  0  0  0  0  0
   -9.1334  207.5587  119.8170 C   0  0  0  0  0  0  0  0  0  0  0  0
   -9.0901  206.8156  118.7400 N   0  0  0  0  0  0  0  0  0  0  0  0
   -8.3851  205.6977  118.9569 C   0  0  0  0  0  0  0  0  0  0  0  0
   -7.3834  206.7979  123.0944 H   0  0  0  0  0  0  0  0  0  0  0  0
   -6.7099  205.3047  122.6204 H   0  0  0  0  0  0  0  0  0  0  0  0
  -10.6871  202.4438  115.6516 C   0  0  0  0  0  0  0  0  0  0  0  0
  -11.3339  202.9960  116.8148 O   0  0  0  0  0  0  0  0  0  0  0  0
  -11.4288  202.1232  118.1423 P   0  0  0  0  0  0  0  0  0  0  0  0
  -10.0179  201.9207  118.6451 O   0  0  0  0  0  0  0  0  0  0  0  0
  -12.2115  200.9404  117.8966 O   0  0  0  0  0  0  0  0  0  0  0  0
   -9.5430  201.3252  118.0444 H   0  0  0  0  0  0  0  0  0  0  0  0
  -12.0117  203.1338  119.2878 O   0  0  0  0  0  0  0  0  0  0  0  0
  -12.1427  204.7298  119.1557 P   0  0  0  0  0  0  0  0  0  0  0  0
  -13.5863  205.0450  119.1919 O   0  0  0  0  0  0  0  0  0  0  0  0
  -11.3775  205.2288  118.0210 O   0  0  0  0  0  0  0  0  0  0  0  0
  -11.8424  205.0130  117.1975 H   0  0  0  0  0  0  0  0  0  0  0  0
  -11.4505  205.0410  120.5567 O   0  0  0  0  0  0  0  0  0  0  0  0
  -10.8726  204.0425  121.6337 P   0  0  0  0  0  0  0  0  0  0  0  0
   -9.8351  203.1814  121.0831 O   0  0  0  0  0  0  0  0  0  0  0  0
  -10.4964  204.7828  122.8662 O   0  0  0  0  0  0  0  0  0  0  0  0
  -12.0206  203.1165  121.9892 O   0  0  0  0  0  0  0  0  0  0  0  0
   -9.5083  202.5857  121.7753 H   0  0  0  0  0  0  0  0  0  0  0  0
  -12.7497  203.6347  122.3643 H   0  0  0  0  0  0  0  0  0  0  0  0
 15 14  1  0  0  0
 16 14  1  0  0  0
 16 17  2  0  0  0
 14 13  2  0  0  0
 17 18  1  0  0  0
 18 19  2  0  0  0
 13 19  1  0  0  0
 13 12  1  0  0  0
 19 10  1  0  0  0
 12 11  2  0  0  0
 10 11  1  0  0  0
 10  7  1  0  0  0
  7  2  1  0  0  0
  7  5  1  0  0  0
  2  1  1  0  0  0
  6  5  1  0  0  0
  5  3  1  0  0  0
  1 22  1  0  0  0
  1  3  1  0  0  0
 26 24  2  0  0  0
 23 22  1  0  0  0
 23 24  1  0  0  0
  3  4  1  0  0  0
 24 25  1  0  0  0
 24 28  1  0  0  0
 30 29  2  0  0  0
 36 34  2  0  0  0
 28 29  1  0  0  0
 29 33  1  0  0  0
 29 31  1  0  0  0
 37 34  1  0  0  0
 34 33  1  0  0  0
 34 35  1  0  0  0
 35 38  1  0  0  0
 37 39  1  0  0  0
 31 32  1  0  0  0
 25 27  1  0  0  0
  4  8  1  0  0  0
  6  9  1  0  0  0
 15 20  1  0  0  0
 15 21  1  0  0  0
M  END
> <minimizedAffinity>
-0.00065

$$$$



 39 41  0  0  0  0  0  0  0  0999 V2000
   -9.6501  207.6722  120.7694 C   0  0  0  0  0  0  0  0  0  0  0  0
  -10.8209  207.9689  119.9983 O   0  0  0  0  0  0  0  0  0  0  0  0
   -9.7637  208.4952  122.0574 C   0  0  0  0  0  0  0  0  0  0  0  0
   -9.0323  209.7205  121.8630 O   0  0  0  0  0  0  0  0  0  0  0  0
  -11.2931  208.8358  122.1247 C   0  0  0  0  0  0  0  0  0  0  0  0
  -11.3567  210.2025  122.6101 O   0  0  0  0  0  0  0  0  0  0  0  0
  -11.6588  208.8890  120.6256 C   0  0  0  0  0  0  0  0  0  0  0  0
   -9.3643  210.1732  121.0720 H   0  0  0  0  0  0  0  0  0  0  0  0
  -10.8001  210.7695  122.0536 H   0  0  0  0  0  0  0  0  0  0  0  0
  -13.0234  208.4381  120.3688 N   0  0  0  0  0  0  0  0  0  0  0  0
  -13.9122  208.2358  121.3679 C   0  0  0  0  0  0  0  0  0  0  0  0
  -15.1233  208.2261  121.0030 N   0  0  0  0  0  0  0  0  0  0  0  0
  -15.1146  208.4340  119.7028 C   0  0  0  0  0  0  0  0  0  0  0  0
  -16.1728  208.4919  118.7901 C   0  0  0  0  0  0  0  0  0  0  0  0
  -17.4685  208.3710  119.0151 N   0  0  0  0  0  0  0  0  0  0  0  0
  -15.8039  208.7073  117.5076 N   0  0  0  0  0  0  0  0  0  0  0  0
  -14.4892  208.7951  117.1848 C   0  0  0  0  0  0  0  0  0  0  0  0
  -13.4504  208.7794  117.9816 N   0  0  0  0  0  0  0  0  0  0  0  0
  -13.8216  208.5565  119.2490 C   0  0  0  0  0  0  0  0  0  0  0  0
  -18.1059  208.4342  118.2674 H   0  0  0  0  0  0  0  0  0  0  0  0
  -17.7970  208.2177  119.9304 H   0  0  0  0  0  0  0  0  0  0  0  0
   -9.6091  206.1723  121.0887 C   0  0  0  0  0  0  0  0  0  0  0  0
  -10.4747  205.6067  120.0851 O   0  0  0  0  0  0  0  0  0  0  0  0
  -11.5808  204.5468  120.5169 P   0  0  0  0  0  0  0  0  0  0  0  0
  -12.5693  205.2694  121.4031 O   0  0  0  0  0  0  0  0  0  0  0  0
  -10.9495  203.3738  121.0622 O   0  0  0  0  0  0  0  0  0  0  0  0
  -12.1488  205.4806  122.2513 H   0  0  0  0  0  0  0  0  0  0  0  0
  -12.4963  204.3046  119.1841 O   0  0  0  0  0  0  0  0  0  0  0  0
  -12.4647  205.1947  117.8467 P   0  0  0  0  0  0  0  0  0  0  0  0
  -11.9656  204.3217  116.7635 O   0  0  0  0  0  0  0  0  0  0  0  0
  -11.7645  206.4528  118.0679 O   0  0  0  0  0  0  0  0  0  0  0  0
  -10.8096  206.2880  118.1115 H   0  0  0  0  0  0  0  0  0  0  0  0
  -14.0460  205.3706  117.7612 O   0  0  0  0  0  0  0  0  0  0  0  0
  -15.1701  204.8169  118.7207 P   0  0  0  0  0  0  0  0  0  0  0  0
  -14.9880  205.2635  120.0949 O   0  0  0  0  0  0  0  0  0  0  0  0
  -16.5124  205.0798  118.1395 O   0  0  0  0  0  0  0  0  0  0  0  0
  -14.9733  203.3129  118.7545 O   0  0  0  0  0  0  0  0  0  0  0  0
  -15.6973  204.9021  120.6490 H   0  0  0  0  0  0  0  0  0  0  0  0
  -15.0829  202.9523  117.8607 H   0  0  0  0  0  0  0  0  0  0  0  0
 15 14  1  0  0  0
 16 14  1  0  0  0
 16 17  2  0  0  0
 14 13  2  0  0  0
 17 18  1  0  0  0
 18 19  2  0  0  0
 13 19  1  0  0  0
 13 12  1  0  0  0
 19 10  1  0  0  0
 12 11  2  0  0  0
 10 11  1  0  0  0
 10  7  1  0  0  0
  7  2  1  0  0  0
  7  5  1  0  0  0
  2  1  1  0  0  0
  6  5  1  0  0  0
  5  3  1  0  0  0
  1 22  1  0  0  0
  1  3  1  0  0  0
 26 24  2  0  0  0
 23 22  1  0  0  0
 23 24  1  0  0  0
  3  4  1  0  0  0
 24 25  1  0  0  0
 24 28  1  0  0  0
 30 29  2  0  0  0
 36 34  2  0  0  0
 28 29  1  0  0  0
 29 33  1  0  0  0
 29 31  1  0  0  0
 37 34  1  0  0  0
 34 33  1  0  0  0
 34 35  1  0  0  0
 35 38  1  0  0  0
 37 39  1  0  0  0
 31 32  1  0  0  0
 25 27  1  0  0  0
  4  8  1  0  0  0
  6  9  1  0  0  0
 15 20  1  0  0  0
 15 21  1  0  0  0
M  END
> <minimizedAffinity>
-0.00039

$$$$



 39 41  0  0  0  0  0  0  0  0999 V2000
  -12.9979  208.9428  118.6907 C   0  0  0  0  0  0  0  0  0  0  0  0
  -12.2908  207.8283  119.2488 O   0  0  0  0  0  0  0  0  0  0  0  0
  -12.7586  208.8898  117.1777 C   0  0  0  0  0  0  0  0  0  0  0  0
  -11.6457  209.7532  116.8774 O   0  0  0  0  0  0  0  0  0  0  0  0
  -12.3116  207.4048  116.9430 C   0  0  0  0  0  0  0  0  0  0  0  0
  -11.2595  207.4782  115.9455 O   0  0  0  0  0  0  0  0  0  0  0  0
  -11.6183  207.0807  118.2839 C   0  0  0  0  0  0  0  0  0  0  0  0
  -10.8791  209.4898  117.4102 H   0  0  0  0  0  0  0  0  0  0  0  0
  -10.5795  208.1049  116.2383 H   0  0  0  0  0  0  0  0  0  0  0  0
  -11.7772  205.6815  118.6693 N   0  0  0  0  0  0  0  0  0  0  0  0
  -12.2691  204.7540  117.8168 C   0  0  0  0  0  0  0  0  0  0  0  0
  -12.0001  203.5573  118.1262 N   0  0  0  0  0  0  0  0  0  0  0  0
  -11.2867  203.6175  119.2313 C   0  0  0  0  0  0  0  0  0  0  0  0
  -10.7513  202.5924  120.0178 C   0  0  0  0  0  0  0  0  0  0  0  0
  -10.8126  201.2866  119.8308 N   0  0  0  0  0  0  0  0  0  0  0  0
  -10.0769  203.0110  121.1121 N   0  0  0  0  0  0  0  0  0  0  0  0
  -10.0082  204.3344  121.4023 C   0  0  0  0  0  0  0  0  0  0  0  0
  -10.4562  205.3474  120.7042 N   0  0  0  0  0  0  0  0  0  0  0  0
  -11.1311  204.9260  119.6268 C   0  0  0  0  0  0  0  0  0  0  0  0
  -10.3844  200.6766  120.4741 H   0  0  0  0  0  0  0  0  0  0  0  0
  -11.2864  200.9231  119.0482 H   0  0  0  0  0  0  0  0  0  0  0  0
  -14.4938  208.8146  119.0056 C   0  0  0  0  0  0  0  0  0  0  0  0
  -14.5089  207.9164  120.1323 O   0  0  0  0  0  0  0  0  0  0  0  0
  -15.5265  206.6927  120.1404 P   0  0  0  0  0  0  0  0  0  0  0  0
  -15.1216  205.7681  119.0154 O   0  0  0  0  0  0  0  0  0  0  0  0
  -16.8806  207.1809  120.1303 O   0  0  0  0  0  0  0  0  0  0  0  0
  -15.3180  206.1895  118.1640 H   0  0  0  0  0  0  0  0  0  0  0  0
  -15.1091  205.7871  121.4360 O   0  0  0  0  0  0  0  0  0  0  0  0
  -13.7634  205.9450  122.2999 P   0  0  0  0  0  0  0  0  0  0  0  0
  -14.1723  206.3728  123.6543 O   0  0  0  0  0  0  0  0  0  0  0  0
  -12.7853  206.7707  121.6046 O   0  0  0  0  0  0  0  0  0  0  0  0
  -13.0551  207.7012  121.6526 H   0  0  0  0  0  0  0  0  0  0  0  0
  -13.3992  204.3941  122.2718 O   0  0  0  0  0  0  0  0  0  0  0  0
  -14.1683  203.1953  121.5919 P   0  0  0  0  0  0  0  0  0  0  0  0
  -14.3372  203.3936  120.1590 O   0  0  0  0  0  0  0  0  0  0  0  0
  -13.5498  201.9028  121.9862 O   0  0  0  0  0  0  0  0  0  0  0  0
  -15.5695  203.2276  122.1728 O   0  0  0  0  0  0  0  0  0  0  0  0
  -14.8127  202.6370  119.7817 H   0  0  0  0  0  0  0  0  0  0  0  0
  -15.5243  203.0999  123.1333 H   0  0  0  0  0  0  0  0  0  0  0  0
 15 14  1  0  0  0
 16 14  1  0  0  0
 16 17  2  0  0  0
 14 13  2  0  0  0
 17 18  1  0  0  0
 18 19  2  0  0  0
 13 19  1  0  0  0
 13 12  1  0  0  0
 19 10  1  0  0  0
 12 11  2  0  0  0
 10 11  1  0  0  0
 10  7  1  0  0  0
  7  2  1  0  0  0
  7  5  1  0  0  0
  2  1  1  0  0  0
  6  5  1  0  0  0
  5  3  1  0  0  0
  1 22  1  0  0  0
  1  3  1  0  0  0
 26 24  2  0  0  0
 23 22  1  0  0  0
 23 24  1  0  0  0
  3  4  1  0  0  0
 24 25  1  0  0  0
 24 28  1  0  0  0
 30 29  2  0  0  0
 36 34  2  0  0  0
 28 29  1  0  0  0
 29 33  1  0  0  0
 29 31  1  0  0  0
 37 34  1  0  0  0
 34 33  1  0  0  0
 34 35  1  0  0  0
 35 38  1  0  0  0
 37 39  1  0  0  0
 31 32  1  0  0  0
 25 27  1  0  0  0
  4  8  1  0  0  0
  6  9  1  0  0  0
 15 20  1  0  0  0
 15 21  1  0  0  0
M  END
> <minimizedAffinity>
-0.00033

$$$$
