


 20 22  0  0  0  0  0  0  0  0999 V2000
  -13.3797  203.5156  115.8277 N   0  0  0  0  0  0  0  0  0  0  0  0
  -14.3107  202.7750  116.4153 C   0  0  0  0  0  0  0  0  0  0  0  0
  -14.2677  202.6214  117.7522 N   0  0  0  0  0  0  0  0  0  0  0  0
  -13.3311  203.2014  118.4922 C   0  0  0  0  0  0  0  0  0  0  0  0
  -12.3674  203.9344  117.8719 C   0  0  0  0  0  0  0  0  0  0  0  0
  -12.3761  204.0936  116.4887 C   0  0  0  0  0  0  0  0  0  0  0  0
  -11.6248  204.3475  118.8895 N   0  0  0  0  0  0  0  0  0  0  0  0
  -12.0034  203.8940  120.1329 C   0  0  0  0  0  0  0  0  0  0  0  0
  -13.1242  203.2089  119.8048 N   0  0  0  0  0  0  0  0  0  0  0  0
  -15.4059  202.1638  115.8978 N   0  0  0  0  0  0  0  0  0  0  0  0
  -16.0734  201.9726  116.6450 H   0  0  0  0  0  0  0  0  0  0  0  0
  -15.1292  201.2868  115.4565 H   0  0  0  0  0  0  0  0  0  0  0  0
  -11.3736  204.8796  115.9234 O   0  0  0  0  0  0  0  0  0  0  0  0
  -10.2859  204.0032  115.5019 C   0  0  0  0  0  0  0  0  0  0  0  0
   -9.0507  204.9885  115.5894 C   0  0  0  0  0  0  0  0  0  0  0  0
   -9.5860  206.2945  116.2676 C   0  0  0  0  0  0  0  0  0  0  0  0
   -8.3650  207.1523  116.6006 C   0  0  0  0  0  0  0  0  0  0  0  0
   -7.9926  206.5325  117.9683 C   0  0  0  0  0  0  0  0  0  0  0  0
   -7.2635  205.2776  117.3266 C   0  0  0  0  0  0  0  0  0  0  0  0
   -8.5389  204.4722  116.9393 C   0  0  0  0  0  0  0  0  0  0  0  0
  9  8  2  0  0  0
  9  4  1  0  0  0
  3  4  2  0  0  0
  3  2  1  0  0  0
  8  7  1  0  0  0
  4  5  1  0  0  0
 10  2  1  0  0  0
  2  1  1  0  0  0
  7  5  2  0  0  0
  5  6  1  0  0  0
  1  6  2  0  0  0
  6 13  1  0  0  0
 13 14  1  0  0  0
 14 15  1  0  0  0
 15 16  1  0  0  0
 15 20  1  0  0  0
 16 17  1  0  0  0
 20 19  1  0  0  0
 17 18  1  0  0  0
 18 19  1  0  0  0
 10 11  1  0  0  0
 10 12  1  0  0  0
M  END
> <minimizedAffinity>
-0.00016

$$$$



 20 22  0  0  0  0  0  0  0  0999 V2000
  -12.6002  202.8194  109.9352 N   0  0  0  0  0  0  0  0  0  0  0  0
  -11.3768  202.8024  110.4484 C   0  0  0  0  0  0  0  0  0  0  0  0
  -10.9791  201.7169  111.1388 N   0  0  0  0  0  0  0  0  0  0  0  0
  -11.7716  200.6653  111.3040 C   0  0  0  0  0  0  0  0  0  0  0  0
  -13.0328  200.7097  110.7959 C   0  0  0  0  0  0  0  0  0  0  0  0
  -13.4771  201.8275  110.0947 C   0  0  0  0  0  0  0  0  0  0  0  0
  -13.5210  199.5267  111.1420 N   0  0  0  0  0  0  0  0  0  0  0  0
  -12.6853  198.7266  111.8882 C   0  0  0  0  0  0  0  0  0  0  0  0
  -11.5740  199.4997  111.9107 N   0  0  0  0  0  0  0  0  0  0  0  0
  -10.3645  203.6994  110.3414 N   0  0  0  0  0  0  0  0  0  0  0  0
   -9.4797  203.2410  110.5590 H   0  0  0  0  0  0  0  0  0  0  0  0
  -10.5197  204.4668  110.9951 H   0  0  0  0  0  0  0  0  0  0  0  0
  -14.7714  201.7932  109.5792 O   0  0  0  0  0  0  0  0  0  0  0  0
  -15.6656  202.4295  110.5407 C   0  0  0  0  0  0  0  0  0  0  0  0
  -17.0321  201.7024  110.2119 C   0  0  0  0  0  0  0  0  0  0  0  0
  -16.6817  200.5587  109.2014 C   0  0  0  0  0  0  0  0  0  0  0  0
  -17.9289  199.6836  109.0740 C   0  0  0  0  0  0  0  0  0  0  0  0
  -17.7025  198.7516  110.2879 C   0  0  0  0  0  0  0  0  0  0  0  0
  -18.2334  199.8118  111.3424 C   0  0  0  0  0  0  0  0  0  0  0  0
  -16.9661  200.7160  111.3838 C   0  0  0  0  0  0  0  0  0  0  0  0
  9  8  2  0  0  0
  9  4  1  0  0  0
  3  4  2  0  0  0
  3  2  1  0  0  0
  8  7  1  0  0  0
  4  5  1  0  0  0
 10  2  1  0  0  0
  2  1  1  0  0  0
  7  5  2  0  0  0
  5  6  1  0  0  0
  1  6  2  0  0  0
  6 13  1  0  0  0
 13 14  1  0  0  0
 14 15  1  0  0  0
 15 16  1  0  0  0
 15 20  1  0  0  0
 16 17  1  0  0  0
 20 19  1  0  0  0
 17 18  1  0  0  0
 18 19  1  0  0  0
 10 11  1  0  0  0
 10 12  1  0  0  0
M  END
> <minimizedAffinity>
-0.00016

$$$$



 20 22  0  0  0  0  0  0  0  0999 V2000
  -16.3291  205.5197  124.1680 N   0  0  0  0  0  0  0  0  0  0  0  0
  -15.2743  204.8924  124.6725 C   0  0  0  0  0  0  0  0  0  0  0  0
  -14.3142  205.6202  125.2735 N   0  0  0  0  0  0  0  0  0  0  0  0
  -14.4047  206.9395  125.3851 C   0  0  0  0  0  0  0  0  0  0  0  0
  -15.4785  207.5707  124.8379 C   0  0  0  0  0  0  0  0  0  0  0  0
  -16.4765  206.8448  124.1933 C   0  0  0  0  0  0  0  0  0  0  0  0
  -15.2412  208.8418  125.1304 N   0  0  0  0  0  0  0  0  0  0  0  0
  -14.0586  209.0966  125.7876 C   0  0  0  0  0  0  0  0  0  0  0  0
  -13.6035  207.8326  125.9563 N   0  0  0  0  0  0  0  0  0  0  0  0
  -14.9989  203.5670  124.7644 N   0  0  0  0  0  0  0  0  0  0  0  0
  -14.2950  203.4153  125.4868 H   0  0  0  0  0  0  0  0  0  0  0  0
  -14.6450  203.2304  123.8689 H   0  0  0  0  0  0  0  0  0  0  0  0
  -17.5607  207.5540  123.6797 O   0  0  0  0  0  0  0  0  0  0  0  0
  -17.2969  207.8412  122.2737 C   0  0  0  0  0  0  0  0  0  0  0  0
  -18.1481  209.1594  122.0681 C   0  0  0  0  0  0  0  0  0  0  0  0
  -18.6461  209.5795  123.4920 C   0  0  0  0  0  0  0  0  0  0  0  0
  -19.2425  210.9807  123.3564 C   0  0  0  0  0  0  0  0  0  0  0  0
  -17.9487  211.8158  123.5055 C   0  0  0  0  0  0  0  0  0  0  0  0
  -17.4908  211.5800  122.0046 C   0  0  0  0  0  0  0  0  0  0  0  0
  -16.9620  210.1251  122.1750 C   0  0  0  0  0  0  0  0  0  0  0  0
  9  8  2  0  0  0
  9  4  1  0  0  0
  3  4  2  0  0  0
  3  2  1  0  0  0
  8  7  1  0  0  0
  4  5  1  0  0  0
 10  2  1  0  0  0
  2  1  1  0  0  0
  7  5  2  0  0  0
  5  6  1  0  0  0
  1  6  2  0  0  0
  6 13  1  0  0  0
 13 14  1  0  0  0
 14 15  1  0  0  0
 15 16  1  0  0  0
 15 20  1  0  0  0
 16 17  1  0  0  0
 20 19  1  0  0  0
 17 18  1  0  0  0
 18 19  1  0  0  0
 10 11  1  0  0  0
 10 12  1  0  0  0
M  END
> <minimizedAffinity>
-0.00013

$$$$
