
 OpenBabel07192212403D

 23 25  0  0  0  0  0  0  0  0999 V2000
  -14.2907  200.7724  115.4469 Br  0  0  0  0  0  0  0  0  0  0  0  0
  -10.4916  201.3496  111.7179 O   0  0  0  0  0  0  0  0  0  0  0  0
   -8.8677  207.2668  115.7268 O   0  0  0  0  0  0  0  0  0  0  0  0
  -12.1032  201.4539  113.8884 N   0  0  0  0  0  0  0  0  0  0  0  0
   -8.9407  202.7692  112.6254 N   0  0  0  0  0  0  0  0  0  0  0  0
  -10.3098  207.2239  117.5172 N   0  0  0  0  0  0  0  0  0  0  0  0
  -11.5346  205.4260  116.9627 N   0  0  0  0  0  0  0  0  0  0  0  0
  -12.0527  206.5293  118.9438 N   0  0  0  0  0  0  0  0  0  0  0  0
  -12.8872  201.8462  114.8950 C   0  0  2  0  0  0  0  0  0  0  0  0
  -12.4909  203.0544  115.3876 C   0  0  0  0  0  0  0  0  0  0  0  0
  -11.3537  203.4408  114.6287 C   0  0  0  0  0  0  0  0  0  0  0  0
  -11.1517  202.3902  113.6819 C   0  0  0  0  0  0  0  0  0  0  0  0
  -10.1716  202.1393  112.6154 C   0  0  0  0  0  0  0  0  0  0  0  0
   -8.4123  203.7286  113.6091 C   0  0  0  0  0  0  0  0  0  0  0  0
   -9.3151  204.9292  113.8274 C   0  0  0  0  0  0  0  0  0  0  0  0
  -10.4287  204.6634  114.8367 C   0  0  0  0  0  0  0  0  0  0  0  0
  -10.5868  205.5176  115.9326 C   0  0  0  0  0  0  0  0  0  0  0  0
   -9.8128  206.7566  116.3482 C   0  0  0  0  0  0  0  0  0  0  0  0
  -11.3166  206.4097  117.8554 C   0  0  0  0  0  0  0  0  0  0  0  0
   -8.3398  202.5474  111.8777 H   0  0  0  0  0  0  0  0  0  0  0  0
  -12.2469  204.7491  117.0232 H   0  0  0  0  0  0  0  0  0  0  0  0
  -12.7774  205.8869  119.1210 H   0  0  0  0  0  0  0  0  0  0  0  0
  -11.8772  207.2608  119.5788 H   0  0  0  0  0  0  0  0  0  0  0  0
  2 13  2  0  0  0  0
  3 18  2  0  0  0  0
  4  9  1  0  0  0  0
  5 13  1  0  0  0  0
  5 14  1  0  0  0  0
  5 20  1  0  0  0  0
  6 19  2  0  0  0  0
  7 19  1  0  0  0  0
  7 21  1  0  0  0  0
  8 22  1  0  0  0  0
  8 23  1  0  0  0  0
  9 10  1  0  0  0  0
  9  1  1  1  0  0  0
 11 16  1  0  0  0  0
 11 10  2  0  0  0  0
 12  4  2  0  0  0  0
 12 11  1  0  0  0  0
 13 12  1  0  0  0  0
 14 15  1  0  0  0  0
 15 16  1  0  0  0  0
 16 17  2  0  0  0  0
 17 18  1  0  0  0  0
 17  7  1  0  0  0  0
 18  6  1  0  0  0  0
 19  8  1  0  0  0  0
M  END
>  <minimizedAffinity>
0.00000

$$$$
