
 OpenBabel07192212403D

 24 26  0  0  0  0  0  0  0  0999 V2000
  -14.7444  210.5220  117.6219 N   0  0  0  0  0  0  0  0  0  0  0  0
  -14.2525  211.0208  118.8176 C   0  0  0  0  0  0  0  0  0  0  0  0
  -14.1393  210.2189  119.9497 N   0  0  0  0  0  0  0  0  0  0  0  0
  -14.5578  208.8518  119.9477 C   0  0  0  0  0  0  0  0  0  0  0  0
  -15.1523  208.2536  118.6475 C   0  0  0  0  0  0  0  0  0  0  0  0
  -15.1685  209.1521  117.4497 C   0  0  0  0  0  0  0  0  0  0  0  0
  -14.4255  208.0201  121.1501 C   0  0  0  0  0  0  0  0  0  0  0  0
  -14.8496  206.6034  121.1501 C   0  0  0  0  0  0  0  0  0  0  0  0
  -15.5100  206.0295  119.9227 C   0  0  0  0  0  0  0  0  0  0  0  0
  -15.6565  206.8716  118.6904 C   0  0  0  0  0  0  0  0  0  0  0  0
  -15.5982  208.7074  116.1735 N   0  0  0  0  0  0  0  0  0  0  0  0
  -16.3873  209.2057  115.8601 H   0  0  0  0  0  0  0  0  0  0  0  0
  -15.1892  207.7398  115.2410 C   0  0  0  0  0  0  0  0  0  0  0  0
  -13.7491  207.4002  115.2917 C   0  0  0  0  0  0  0  0  0  0  0  0
  -13.1669  206.4159  114.3550 C   0  0  0  0  0  0  0  0  0  0  0  0
  -14.0286  205.6992  113.4069 C   0  0  0  0  0  0  0  0  0  0  0  0
  -15.4678  206.0146  113.3322 C   0  0  0  0  0  0  0  0  0  0  0  0
  -16.0406  207.0429  114.2185 C   0  0  0  0  0  0  0  0  0  0  0  0
  -11.8126  206.1631  114.3499 O   0  0  0  0  0  0  0  0  0  0  0  0
  -11.4552  205.5369  113.7515 H   0  0  0  0  0  0  0  0  0  0  0  0
  -14.6416  205.7170  122.2371 O   0  0  0  0  0  0  0  0  0  0  0  0
  -13.3899  205.0851  122.5301 C   0  0  0  0  0  0  0  0  0  0  0  0
  -15.9263  204.6649  119.9959 O   0  0  0  0  0  0  0  0  0  0  0  0
  -15.2271  203.6353  119.2878 C   0  0  0  0  0  0  0  0  0  0  0  0
  1  6  2  0  0  0  0
  2  3  2  0  0  0  0
  2  1  1  0  0  0  0
  3  4  1  0  0  0  0
  4  7  2  0  0  0  0
  4  5  1  0  0  0  0
  5 10  2  0  0  0  0
  6  5  1  0  0  0  0
  6 11  1  0  0  0  0
  7  8  1  0  0  0  0
  8 21  1  0  0  0  0
  8  9  2  0  0  0  0
  9 23  1  0  0  0  0
 10  9  1  0  0  0  0
 11 13  1  0  0  0  0
 11 12  1  0  0  0  0
 13 14  1  0  0  0  0
 14 15  2  0  0  0  0
 15 19  1  0  0  0  0
 16 15  1  0  0  0  0
 17 16  2  0  0  0  0
 18 17  1  0  0  0  0
 18 13  2  0  0  0  0
 19 20  1  0  0  0  0
 22 21  1  0  0  0  0
 23 24  1  0  0  0  0
M  END
>  <minimizedAffinity>
-0.00004

$$$$
