
 OpenBabel07192212403D

 23 25  0  0  0  0  0  0  0  0999 V2000
  -15.8806  200.8149  117.2374 Br  0  0  0  0  0  0  0  0  0  0  0  0
  -10.5568  201.1536  116.7749 O   0  0  0  0  0  0  0  0  0  0  0  0
  -12.2275  207.7027  113.9394 O   0  0  0  0  0  0  0  0  0  0  0  0
  -13.2300  201.5498  116.9017 N   0  0  0  0  0  0  0  0  0  0  0  0
  -10.0960  203.3819  116.5161 N   0  0  0  0  0  0  0  0  0  0  0  0
  -14.5126  207.8931  114.1096 N   0  0  0  0  0  0  0  0  0  0  0  0
  -14.9915  205.8655  114.9459 N   0  0  0  0  0  0  0  0  0  0  0  0
  -16.7550  207.3362  114.5754 N   0  0  0  0  0  0  0  0  0  0  0  0
  -14.4953  201.8973  116.6568 C   0  0  2  0  0  0  0  0  0  0  0  0
  -14.5607  203.0782  115.9782 C   0  0  0  0  0  0  0  0  0  0  0  0
  -13.2189  203.5082  115.7961 C   0  0  0  0  0  0  0  0  0  0  0  0
  -12.4090  202.4961  116.3966 C   0  0  0  0  0  0  0  0  0  0  0  0
  -10.9622  202.3056  116.5741 C   0  0  0  0  0  0  0  0  0  0  0  0
  -10.4144  204.8005  116.2847 C   0  0  0  0  0  0  0  0  0  0  0  0
  -11.2072  205.0422  115.0130 C   0  0  0  0  0  0  0  0  0  0  0  0
  -12.7087  204.8408  115.1981 C   0  0  0  0  0  0  0  0  0  0  0  0
  -13.5930  205.8622  114.8366 C   0  0  0  0  0  0  0  0  0  0  0  0
  -13.3362  207.2379  114.2464 C   0  0  0  0  0  0  0  0  0  0  0  0
  -15.4657  207.0585  114.5410 C   0  0  0  0  0  0  0  0  0  0  0  0
   -9.1430  203.1724  116.6464 H   0  0  0  0  0  0  0  0  0  0  0  0
  -15.5398  205.1139  115.2678 H   0  0  0  0  0  0  0  0  0  0  0  0
  -17.3943  206.6655  114.9081 H   0  0  0  0  0  0  0  0  0  0  0  0
  -17.0778  208.2142  114.2684 H   0  0  0  0  0  0  0  0  0  0  0  0
  2 13  2  0  0  0  0
  3 18  2  0  0  0  0
  4  9  1  0  0  0  0
  5 13  1  0  0  0  0
  5 14  1  0  0  0  0
  5 20  1  0  0  0  0
  6 19  2  0  0  0  0
  7 19  1  0  0  0  0
  7 21  1  0  0  0  0
  8 22  1  0  0  0  0
  8 23  1  0  0  0  0
  9 10  1  0  0  0  0
  9  1  1  1  0  0  0
 11 16  1  0  0  0  0
 11 10  2  0  0  0  0
 12  4  2  0  0  0  0
 12 11  1  0  0  0  0
 13 12  1  0  0  0  0
 14 15  1  0  0  0  0
 15 16  1  0  0  0  0
 16 17  2  0  0  0  0
 17 18  1  0  0  0  0
 17  7  1  0  0  0  0
 18  6  1  0  0  0  0
 19  8  1  0  0  0  0
M  END
>  <minimizedAffinity>
0.00000

$$$$
