
 OpenBabel07192212403D

 36 43  0  0  0  0  0  0  0  0999 V2000
  -11.8281  204.7517  119.0145 O   0  0  0  0  0  0  0  0  0  0  0  0
  -11.8280  203.3871  118.6251 C   0  0  2  0  0  0  0  0  0  0  0  0
  -10.3912  202.8150  118.5182 C   0  0  0  0  0  0  0  0  0  0  0  0
   -9.3731  203.9259  118.7861 C   0  0  2  0  0  0  0  0  0  0  0  0
   -9.6576  205.1280  117.8399 C   0  0  2  0  0  0  0  0  0  0  0  0
  -11.0127  205.7113  118.3636 C   0  0  2  0  0  0  0  0  0  0  0  0
  -10.6732  206.7204  119.4446 C   0  0  0  0  0  0  0  0  0  0  0  0
  -11.8016  206.3616  117.2810 N   0  0  0  0  0  0  0  0  0  0  0  0
  -12.7217  205.5736  116.5418 C   0  0  0  0  0  0  0  0  0  0  0  0
  -13.0669  204.2840  116.6010 C   0  0  0  0  0  0  0  0  0  0  0  0
  -14.0181  203.7032  115.7073 C   0  0  0  0  0  0  0  0  0  0  0  0
  -14.5998  204.6494  114.7407 C   0  0  0  0  0  0  0  0  0  0  0  0
  -14.2581  205.9107  114.6889 C   0  0  0  0  0  0  0  0  0  0  0  0
  -13.2949  206.4711  115.5605 C   0  0  0  0  0  0  0  0  0  0  0  0
  -12.7360  207.7545  115.7509 C   0  0  0  0  0  0  0  0  0  0  0  0
  -11.7928  207.6869  116.8223 C   0  0  0  0  0  0  0  0  0  0  0  0
  -11.1006  208.7981  117.1932 C   0  0  0  0  0  0  0  0  0  0  0  0
  -11.3106  209.9832  116.5536 C   0  0  0  0  0  0  0  0  0  0  0  0
  -12.2353  210.0854  115.4720 C   0  0  0  0  0  0  0  0  0  0  0  0
  -12.9167  208.9510  115.0984 C   0  0  0  0  0  0  0  0  0  0  0  0
  -15.0083  206.6300  113.5525 C   0  0  0  0  0  0  0  0  0  0  0  0
  -15.7832  205.5087  113.0620 N   0  0  0  0  0  0  0  0  0  0  0  0
  -15.6029  204.3297  113.6755 C   0  0  0  0  0  0  0  0  0  0  0  0
  -16.1377  203.2665  113.4282 O   0  0  0  0  0  0  0  0  0  0  0  0
  -14.1266  202.3283  115.9925 C   0  0  0  0  0  0  0  0  0  0  0  0
  -13.2339  202.0689  117.0724 C   0  0  0  0  0  0  0  0  0  0  0  0
  -13.1122  200.8091  117.6649 C   0  0  0  0  0  0  0  0  0  0  0  0
  -13.8773  199.7901  117.1447 C   0  0  0  0  0  0  0  0  0  0  0  0
  -14.7583  200.0325  116.0653 C   0  0  0  0  0  0  0  0  0  0  0  0
  -14.8838  201.2776  115.5245 C   0  0  0  0  0  0  0  0  0  0  0  0
  -12.5939  203.2143  117.3961 N   0  0  0  0  0  0  0  0  0  0  0  0
   -7.9313  203.3519  118.5426 N   0  0  0  0  0  0  0  0  0  0  0  0
   -6.9027  204.3815  118.8609 C   0  0  0  0  0  0  0  0  0  0  0  0
   -7.8399  203.0763  117.5648 H   0  0  0  0  0  0  0  0  0  0  0  0
   -9.8457  204.5678  116.5250 O   0  0  0  0  0  0  0  0  0  0  0  0
   -8.9987  205.1781  115.5712 C   0  0  0  0  0  0  0  0  0  0  0  0
  1  6  1  0  0  0  0
  2  1  1  0  0  0  0
  2  3  1  6  0  0  0
  3  4  1  0  0  0  0
  4 32  1  6  0  0  0
  5 35  1  6  0  0  0
  5  4  1  0  0  0  0
  6  5  1  0  0  0  0
  6  7  1  1  0  0  0
  8  6  1  0  0  0  0
  9  8  1  0  0  0  0
 10  9  1  0  0  0  0
 10 31  1  0  0  0  0
 11 25  1  0  0  0  0
 11 10  2  0  0  0  0
 12 13  2  0  0  0  0
 12 11  1  0  0  0  0
 13 14  1  0  0  0  0
 14 15  1  0  0  0  0
 14  9  2  0  0  0  0
 15 16  1  0  0  0  0
 16  8  1  0  0  0  0
 16 17  2  0  0  0  0
 18 17  1  0  0  0  0
 19 18  2  0  0  0  0
 20 15  2  0  0  0  0
 20 19  1  0  0  0  0
 21 13  1  0  0  0  0
 22 23  1  0  0  0  0
 22 21  2  0  0  0  0
 23 12  1  0  0  0  0
 24 23  2  0  0  0  0
 25 26  1  0  0  0  0
 26 27  2  0  0  0  0
 26 31  1  0  0  0  0
 28 27  1  0  0  0  0
 29 28  2  0  0  0  0
 30 29  1  0  0  0  0
 30 25  2  0  0  0  0
 31  2  1  0  0  0  0
 32 33  1  0  0  0  0
 32 34  1  0  0  0  0
 36 35  1  0  0  0  0
M  END
>  <minimizedAffinity>
-0.00054

$$$$
