


 28 31  0  0  0  0  0  0  0  0999 V2000
  -13.9009  208.3014  116.7627 C   0  0  0  0  0  0  0  0  0  0  0  0
  -14.2268  209.5710  117.4529 C   0  0  0  0  0  0  0  0  0  0  0  0
  -12.6749  207.8046  117.5285 C   0  0  0  0  0  0  0  0  0  0  0  0
  -15.1650  210.3052  117.1416 O   0  0  0  0  0  0  0  0  0  0  0  0
  -13.3813  209.7717  118.4175 N   0  0  0  0  0  0  0  0  0  0  0  0
  -12.4701  208.7990  118.5044 C   0  0  0  0  0  0  0  0  0  0  0  0
  -11.7996  206.6819  117.4680 C   0  0  0  0  0  0  0  0  0  0  0  0
  -10.7209  206.5999  118.4073 C   0  0  0  0  0  0  0  0  0  0  0  0
  -10.5279  207.6153  119.3811 C   0  0  0  0  0  0  0  0  0  0  0  0
  -11.4095  208.7282  119.4415 C   0  0  0  0  0  0  0  0  0  0  0  0
  -13.4087  210.5522  119.0169 H   0  0  0  0  0  0  0  0  0  0  0  0
  -15.9126  206.3496  114.6492 C   0  0  0  0  0  0  0  0  0  0  0  0
  -15.6123  207.2523  113.6148 C   0  0  0  0  0  0  0  0  0  0  0  0
  -16.7591  205.2300  114.4298 C   0  0  0  0  0  0  0  0  0  0  0  0
  -15.2983  206.7056  115.7843 N   0  0  0  0  0  0  0  0  0  0  0  0
  -16.1408  207.1025  112.3022 C   0  0  0  0  0  0  0  0  0  0  0  0
  -14.7073  208.2443  114.2817 C   0  0  0  0  0  0  0  0  0  0  0  0
  -16.9946  205.9840  112.0644 C   0  0  0  0  0  0  0  0  0  0  0  0
  -17.3015  205.0574  113.1173 C   0  0  0  0  0  0  0  0  0  0  0  0
  -14.2176  209.2080  113.7290 O   0  0  0  0  0  0  0  0  0  0  0  0
  -14.5799  207.8071  115.6872 C   0  0  0  0  0  0  0  0  0  0  0  0
   -9.6484  205.1915  118.2970 S   0  0  0  0  0  0  0  0  0  0  0  0
  -10.2227  204.2088  119.2519 O   0  0  0  0  0  0  0  0  0  0  0  0
   -8.3244  205.5713  118.7395 O   0  0  0  0  0  0  0  0  0  0  0  0
   -9.8201  204.6400  116.9687 O   0  0  0  0  0  0  0  0  0  0  0  0
  -11.1106  203.9525  118.9572 H   0  0  0  0  0  0  0  0  0  0  0  0
   -8.3734  205.9208  119.6430 H   0  0  0  0  0  0  0  0  0  0  0  0
  -10.7571  204.4369  116.8215 H   0  0  0  0  0  0  0  0  0  0  0  0
  4  2  2  0  0  0
  5  2  1  0  0  0
  5  6  1  0  0  0
  2  1  1  0  0  0
 10  6  1  0  0  0
 10  9  2  0  0  0
  6  3  2  0  0  0
  1  3  1  0  0  0
  1 21  1  0  0  0
 15 21  2  0  0  0
 15 12  1  0  0  0
  9  8  1  0  0  0
  3  7  1  0  0  0
 14 12  2  0  0  0
 14 19  1  0  0  0
 21 17  1  0  0  0
 12 13  1  0  0  0
  8  7  2  0  0  0
  8 22  1  0  0  0
 19 18  2  0  0  0
 17 13  1  0  0  0
 17 20  2  0  0  0
 13 16  2  0  0  0
 23 22  1  0  0  0
 22 25  1  0  0  0
 22 24  1  0  0  0
 18 16  1  0  0  0
  5 11  1  0  0  0
 23 26  1  0  0  0
 24 27  1  0  0  0
 25 28  1  0  0  0
M  END
> <minimizedAffinity>
-0.00009

$$$$



 28 31  0  0  0  0  0  0  0  0999 V2000
  -13.9670  209.1225  115.5985 C   0  0  0  0  0  0  0  0  0  0  0  0
  -12.7779  209.9732  115.8367 C   0  0  0  0  0  0  0  0  0  0  0  0
  -14.9892  209.6850  116.5860 C   0  0  0  0  0  0  0  0  0  0  0  0
  -11.7097  209.8507  115.2367 O   0  0  0  0  0  0  0  0  0  0  0  0
  -13.0460  210.8482  116.7577 N   0  0  0  0  0  0  0  0  0  0  0  0
  -14.2912  210.7275  117.2254 C   0  0  0  0  0  0  0  0  0  0  0  0
  -16.3378  209.4074  116.9527 C   0  0  0  0  0  0  0  0  0  0  0  0
  -16.9489  210.2011  117.9769 C   0  0  0  0  0  0  0  0  0  0  0  0
  -16.2270  211.2453  118.6135 C   0  0  0  0  0  0  0  0  0  0  0  0
  -14.8849  211.5223  118.2373 C   0  0  0  0  0  0  0  0  0  0  0  0
  -12.4043  211.5240  117.0752 H   0  0  0  0  0  0  0  0  0  0  0  0
  -14.7056  207.0680  112.8495 C   0  0  0  0  0  0  0  0  0  0  0  0
  -13.8462  206.1042  113.4043 C   0  0  0  0  0  0  0  0  0  0  0  0
  -15.3834  206.8345  111.6230 C   0  0  0  0  0  0  0  0  0  0  0  0
  -14.7684  208.1544  113.6294 N   0  0  0  0  0  0  0  0  0  0  0  0
  -13.6018  204.8538  112.7709 C   0  0  0  0  0  0  0  0  0  0  0  0
  -13.3699  206.7598  114.6658 C   0  0  0  0  0  0  0  0  0  0  0  0
  -14.2733  204.6031  111.5369 C   0  0  0  0  0  0  0  0  0  0  0  0
  -15.1546  205.5834  110.9680 C   0  0  0  0  0  0  0  0  0  0  0  0
  -12.5932  206.2561  115.4512 O   0  0  0  0  0  0  0  0  0  0  0  0
  -14.0149  208.0883  114.7095 C   0  0  0  0  0  0  0  0  0  0  0  0
  -18.6263  209.8220  118.4110 S   0  0  0  0  0  0  0  0  0  0  0  0
  -19.4448  210.7382  117.5755 O   0  0  0  0  0  0  0  0  0  0  0  0
  -18.8339  210.1346  119.8082 O   0  0  0  0  0  0  0  0  0  0  0  0
  -18.8847  208.4767  117.9404 O   0  0  0  0  0  0  0  0  0  0  0  0
  -19.3072  210.5305  116.6380 H   0  0  0  0  0  0  0  0  0  0  0  0
  -18.6197  211.0674  119.9661 H   0  0  0  0  0  0  0  0  0  0  0  0
  -18.7005  208.4259  116.9894 H   0  0  0  0  0  0  0  0  0  0  0  0
  4  2  2  0  0  0
  5  2  1  0  0  0
  5  6  1  0  0  0
  2  1  1  0  0  0
 10  6  1  0  0  0
 10  9  2  0  0  0
  6  3  2  0  0  0
  1  3  1  0  0  0
  1 21  1  0  0  0
 15 21  2  0  0  0
 15 12  1  0  0  0
  9  8  1  0  0  0
  3  7  1  0  0  0
 14 12  2  0  0  0
 14 19  1  0  0  0
 21 17  1  0  0  0
 12 13  1  0  0  0
  8  7  2  0  0  0
  8 22  1  0  0  0
 19 18  2  0  0  0
 17 13  1  0  0  0
 17 20  2  0  0  0
 13 16  2  0  0  0
 23 22  1  0  0  0
 22 25  1  0  0  0
 22 24  1  0  0  0
 18 16  1  0  0  0
  5 11  1  0  0  0
 23 26  1  0  0  0
 24 27  1  0  0  0
 25 28  1  0  0  0
M  END
> <minimizedAffinity>
-0.00009

$$$$



 28 31  0  0  0  0  0  0  0  0999 V2000
  -15.3990  204.7575  119.1265 C   0  0  0  0  0  0  0  0  0  0  0  0
  -16.7923  205.0613  119.5280 C   0  0  0  0  0  0  0  0  0  0  0  0
  -15.4032  205.0658  117.6294 C   0  0  0  0  0  0  0  0  0  0  0  0
  -17.2217  204.9425  120.6758 O   0  0  0  0  0  0  0  0  0  0  0  0
  -17.4650  205.4661  118.4939 N   0  0  0  0  0  0  0  0  0  0  0  0
  -16.7250  205.4837  117.3821 C   0  0  0  0  0  0  0  0  0  0  0  0
  -14.4631  205.0222  116.5595 C   0  0  0  0  0  0  0  0  0  0  0  0
  -14.8964  205.4024  115.2479 C   0  0  0  0  0  0  0  0  0  0  0  0
  -16.2351  205.8165  115.0175 C   0  0  0  0  0  0  0  0  0  0  0  0
  -17.1655  205.8657  116.0906 C   0  0  0  0  0  0  0  0  0  0  0  0
  -18.4129  205.7302  118.5257 H   0  0  0  0  0  0  0  0  0  0  0  0
  -12.5367  204.4329  121.1328 C   0  0  0  0  0  0  0  0  0  0  0  0
  -12.9687  203.1335  121.4492 C   0  0  0  0  0  0  0  0  0  0  0  0
  -11.3346  204.9636  121.6728 C   0  0  0  0  0  0  0  0  0  0  0  0
  -13.3926  205.0270  120.2919 N   0  0  0  0  0  0  0  0  0  0  0  0
  -12.2374  202.2855  122.3270 C   0  0  0  0  0  0  0  0  0  0  0  0
  -14.2441  203.0009  120.6722 C   0  0  0  0  0  0  0  0  0  0  0  0
  -11.0280  202.8032  122.8801 C   0  0  0  0  0  0  0  0  0  0  0  0
  -10.5811  204.1288  122.5571 C   0  0  0  0  0  0  0  0  0  0  0  0
  -14.9493  202.0126  120.6721 O   0  0  0  0  0  0  0  0  0  0  0  0
  -14.4346  204.2862  119.9691 C   0  0  0  0  0  0  0  0  0  0  0  0
  -13.7002  205.3290  113.9404 S   0  0  0  0  0  0  0  0  0  0  0  0
  -13.1318  206.7002  113.8765 O   0  0  0  0  0  0  0  0  0  0  0  0
  -14.3783  205.0337  112.6970 O   0  0  0  0  0  0  0  0  0  0  0  0
  -12.6399  204.4527  114.3942 O   0  0  0  0  0  0  0  0  0  0  0  0
  -12.6765  206.9006  114.7093 H   0  0  0  0  0  0  0  0  0  0  0  0
  -15.0570  205.7066  112.5312 H   0  0  0  0  0  0  0  0  0  0  0  0
  -12.2871  204.7812  115.2359 H   0  0  0  0  0  0  0  0  0  0  0  0
  4  2  2  0  0  0
  5  2  1  0  0  0
  5  6  1  0  0  0
  2  1  1  0  0  0
 10  6  1  0  0  0
 10  9  2  0  0  0
  6  3  2  0  0  0
  1  3  1  0  0  0
  1 21  1  0  0  0
 15 21  2  0  0  0
 15 12  1  0  0  0
  9  8  1  0  0  0
  3  7  1  0  0  0
 14 12  2  0  0  0
 14 19  1  0  0  0
 21 17  1  0  0  0
 12 13  1  0  0  0
  8  7  2  0  0  0
  8 22  1  0  0  0
 19 18  2  0  0  0
 17 13  1  0  0  0
 17 20  2  0  0  0
 13 16  2  0  0  0
 23 22  1  0  0  0
 22 25  1  0  0  0
 22 24  1  0  0  0
 18 16  1  0  0  0
  5 11  1  0  0  0
 23 26  1  0  0  0
 24 27  1  0  0  0
 25 28  1  0  0  0
M  END
> <minimizedAffinity>
-0.00008

$$$$
