
 OpenBabel07192212403D

 36 43  0  0  0  0  0  0  0  0999 V2000
  -16.8038  203.4293  116.3895 O   0  0  0  0  0  0  0  0  0  0  0  0
  -16.2270  202.5520  115.4347 C   0  0  2  0  0  0  0  0  0  0  0  0
  -14.6783  202.6184  115.4479 C   0  0  0  0  0  0  0  0  0  0  0  0
  -14.2169  203.6865  116.4423 C   0  0  2  0  0  0  0  0  0  0  0  0
  -14.9146  205.0375  116.1117 C   0  0  2  0  0  0  0  0  0  0  0  0
  -16.4160  204.7897  116.4798 C   0  0  2  0  0  0  0  0  0  0  0  0
  -16.5758  205.1359  117.9483 C   0  0  0  0  0  0  0  0  0  0  0  0
  -17.3416  205.6123  115.6527 N   0  0  0  0  0  0  0  0  0  0  0  0
  -17.8197  205.0761  114.4288 C   0  0  0  0  0  0  0  0  0  0  0  0
  -17.6124  203.9138  113.8030 C   0  0  0  0  0  0  0  0  0  0  0  0
  -18.1949  203.6118  112.5340 C   0  0  0  0  0  0  0  0  0  0  0  0
  -19.0584  204.6751  111.9936 C   0  0  0  0  0  0  0  0  0  0  0  0
  -19.2576  205.8101  112.6120 C   0  0  0  0  0  0  0  0  0  0  0  0
  -18.6547  206.1113  113.8559 C   0  0  0  0  0  0  0  0  0  0  0  0
  -18.6780  207.2080  114.7460 C   0  0  0  0  0  0  0  0  0  0  0  0
  -17.8484  206.9021  115.8686 C   0  0  0  0  0  0  0  0  0  0  0  0
  -17.6899  207.8117  116.8680 C   0  0  0  0  0  0  0  0  0  0  0  0
  -18.3294  209.0139  116.8100 C   0  0  0  0  0  0  0  0  0  0  0  0
  -19.1556  209.3586  115.6992 C   0  0  0  0  0  0  0  0  0  0  0  0
  -19.2947  208.4353  114.6897 C   0  0  0  0  0  0  0  0  0  0  0  0
  -20.1731  206.7277  111.7804 C   0  0  0  0  0  0  0  0  0  0  0  0
  -20.3965  205.8455  110.6534 N   0  0  0  0  0  0  0  0  0  0  0  0
  -19.7852  204.6521  110.6843 C   0  0  0  0  0  0  0  0  0  0  0  0
  -19.8265  203.7670  109.8523 O   0  0  0  0  0  0  0  0  0  0  0  0
  -17.7494  202.3409  112.1221 C   0  0  0  0  0  0  0  0  0  0  0  0
  -16.8881  201.8625  113.1516 C   0  0  0  0  0  0  0  0  0  0  0  0
  -16.2962  200.5971  113.1129 C   0  0  0  0  0  0  0  0  0  0  0  0
  -16.5507  199.8145  112.0098 C   0  0  0  0  0  0  0  0  0  0  0  0
  -17.3944  200.2830  110.9759 C   0  0  0  0  0  0  0  0  0  0  0  0
  -17.9866  201.5086  111.0510 C   0  0  0  0  0  0  0  0  0  0  0  0
  -16.7885  202.8069  114.1131 N   0  0  0  0  0  0  0  0  0  0  0  0
  -12.6554  203.8240  116.3394 N   0  0  0  0  0  0  0  0  0  0  0  0
  -12.1540  204.8050  117.3422 C   0  0  0  0  0  0  0  0  0  0  0  0
  -12.4070  204.1436  115.4031 H   0  0  0  0  0  0  0  0  0  0  0  0
  -14.7870  205.2169  114.6870 O   0  0  0  0  0  0  0  0  0  0  0  0
  -14.2118  206.4686  114.3676 C   0  0  0  0  0  0  0  0  0  0  0  0
  1  6  1  0  0  0  0
  2  1  1  0  0  0  0
  2  3  1  6  0  0  0
  3  4  1  0  0  0  0
  4 32  1  6  0  0  0
  5 35  1  6  0  0  0
  5  4  1  0  0  0  0
  6  5  1  0  0  0  0
  6  7  1  1  0  0  0
  8  6  1  0  0  0  0
  9  8  1  0  0  0  0
 10  9  1  0  0  0  0
 10 31  1  0  0  0  0
 11 25  1  0  0  0  0
 11 10  2  0  0  0  0
 12 13  2  0  0  0  0
 12 11  1  0  0  0  0
 13 14  1  0  0  0  0
 14 15  1  0  0  0  0
 14  9  2  0  0  0  0
 15 16  1  0  0  0  0
 16  8  1  0  0  0  0
 16 17  2  0  0  0  0
 18 17  1  0  0  0  0
 19 18  2  0  0  0  0
 20 15  2  0  0  0  0
 20 19  1  0  0  0  0
 21 13  1  0  0  0  0
 22 23  1  0  0  0  0
 22 21  2  0  0  0  0
 23 12  1  0  0  0  0
 24 23  2  0  0  0  0
 25 26  1  0  0  0  0
 26 27  2  0  0  0  0
 26 31  1  0  0  0  0
 28 27  1  0  0  0  0
 29 28  2  0  0  0  0
 30 29  1  0  0  0  0
 30 25  2  0  0  0  0
 31  2  1  0  0  0  0
 32 33  1  0  0  0  0
 32 34  1  0  0  0  0
 36 35  1  0  0  0  0
M  END
>  <minimizedAffinity>
-0.00054

$$$$
