
 OpenBabel07192212403D

 39 41  0  0  0  0  0  0  0  0999 V2000
  -12.9979  208.9428  118.6907 C   0  0  1  0  0  0  0  0  0  0  0  0
  -12.2908  207.8283  119.2488 O   0  0  0  0  0  0  0  0  0  0  0  0
  -12.7586  208.8898  117.1777 C   0  0  1  0  0  0  0  0  0  0  0  0
  -11.6457  209.7532  116.8774 O   0  0  0  0  0  0  0  0  0  0  0  0
  -12.3116  207.4048  116.9430 C   0  0  1  0  0  0  0  0  0  0  0  0
  -11.2595  207.4782  115.9455 O   0  0  0  0  0  0  0  0  0  0  0  0
  -11.6183  207.0807  118.2839 C   0  0  2  0  0  0  0  0  0  0  0  0
  -10.8791  209.4898  117.4102 H   0  0  0  0  0  0  0  0  0  0  0  0
  -10.5795  208.1049  116.2383 H   0  0  0  0  0  0  0  0  0  0  0  0
  -11.7772  205.6815  118.6693 N   0  0  0  0  0  0  0  0  0  0  0  0
  -12.2691  204.7540  117.8168 C   0  0  0  0  0  0  0  0  0  0  0  0
  -12.0001  203.5573  118.1262 N   0  0  0  0  0  0  0  0  0  0  0  0
  -11.2867  203.6175  119.2313 C   0  0  0  0  0  0  0  0  0  0  0  0
  -10.7513  202.5924  120.0178 C   0  0  0  0  0  0  0  0  0  0  0  0
  -10.8126  201.2866  119.8308 N   0  0  0  0  0  0  0  0  0  0  0  0
  -10.0769  203.0110  121.1121 N   0  0  0  0  0  0  0  0  0  0  0  0
  -10.0082  204.3344  121.4023 C   0  0  0  0  0  0  0  0  0  0  0  0
  -10.4562  205.3474  120.7042 N   0  0  0  0  0  0  0  0  0  0  0  0
  -11.1311  204.9260  119.6268 C   0  0  0  0  0  0  0  0  0  0  0  0
  -10.3844  200.6766  120.4741 H   0  0  0  0  0  0  0  0  0  0  0  0
  -11.2864  200.9231  119.0482 H   0  0  0  0  0  0  0  0  0  0  0  0
  -14.4938  208.8146  119.0056 C   0  0  0  0  0  0  0  0  0  0  0  0
  -14.5089  207.9164  120.1323 O   0  0  0  0  0  0  0  0  0  0  0  0
  -15.5265  206.6927  120.1404 P   0  0  2  0  0  0  0  0  0  0  0  0
  -15.1216  205.7681  119.0154 O   0  0  0  0  0  0  0  0  0  0  0  0
  -16.8806  207.1809  120.1303 O   0  0  0  0  0  0  0  0  0  0  0  0
  -15.3180  206.1895  118.1640 H   0  0  0  0  0  0  0  0  0  0  0  0
  -15.1091  205.7871  121.4360 O   0  0  0  0  0  0  0  0  0  0  0  0
  -13.7634  205.9450  122.2999 P   0  0  2  0  0  0  0  0  0  0  0  0
  -14.1723  206.3728  123.6543 O   0  0  0  0  0  0  0  0  0  0  0  0
  -12.7853  206.7707  121.6046 O   0  0  0  0  0  0  0  0  0  0  0  0
  -13.0551  207.7012  121.6526 H   0  0  0  0  0  0  0  0  0  0  0  0
  -13.3992  204.3941  122.2718 O   0  0  0  0  0  0  0  0  0  0  0  0
  -14.1683  203.1953  121.5919 P   0  0  0  0  0  0  0  0  0  0  0  0
  -14.3372  203.3936  120.1590 O   0  0  0  0  0  0  0  0  0  0  0  0
  -13.5498  201.9028  121.9862 O   0  0  0  0  0  0  0  0  0  0  0  0
  -15.5695  203.2276  122.1728 O   0  0  0  0  0  0  0  0  0  0  0  0
  -14.8127  202.6370  119.7817 H   0  0  0  0  0  0  0  0  0  0  0  0
  -15.5243  203.0999  123.1333 H   0  0  0  0  0  0  0  0  0  0  0  0
  1 22  1  6  0  0  0
  1  3  1  0  0  0  0
  2  1  1  0  0  0  0
  3  4  1  1  0  0  0
  4  8  1  0  0  0  0
  5  6  1  6  0  0  0
  5  3  1  0  0  0  0
  6  9  1  0  0  0  0
  7 10  1  1  0  0  0
  7  2  1  0  0  0  0
  7  5  1  0  0  0  0
 10 11  1  0  0  0  0
 12 11  2  0  0  0  0
 13 19  1  0  0  0  0
 13 12  1  0  0  0  0
 14 13  2  0  0  0  0
 15 14  1  0  0  0  0
 15 20  1  0  0  0  0
 15 21  1  0  0  0  0
 16 14  1  0  0  0  0
 16 17  2  0  0  0  0
 17 18  1  0  0  0  0
 18 19  2  0  0  0  0
 19 10  1  0  0  0  0
 23 22  1  0  0  0  0
 23 24  1  0  0  0  0
 24 26  2  6  0  0  0
 24 25  1  0  0  0  0
 24 28  1  0  0  0  0
 25 27  1  0  0  0  0
 28 29  1  0  0  0  0
 29 30  2  1  0  0  0
 29 33  1  0  0  0  0
 29 31  1  0  0  0  0
 31 32  1  0  0  0  0
 34 33  1  0  0  0  0
 34 35  1  0  0  0  0
 35 38  1  0  0  0  0
 36 34  2  0  0  0  0
 37 34  1  0  0  0  0
 37 39  1  0  0  0  0
M  END
>  <minimizedAffinity>
-0.00033

$$$$
