
 OpenBabel07192212403D

 20 22  0  0  0  0  0  0  0  0999 V2000
  -16.3291  205.5197  124.1680 N   0  0  0  0  0  0  0  0  0  0  0  0
  -15.2743  204.8924  124.6725 C   0  0  1  0  0  0  0  0  0  0  0  0
  -14.3142  205.6202  125.2735 N   0  0  0  0  0  0  0  0  0  0  0  0
  -14.4047  206.9395  125.3851 C   0  0  0  0  0  0  0  0  0  0  0  0
  -15.4785  207.5707  124.8379 C   0  0  0  0  0  0  0  0  0  0  0  0
  -16.4765  206.8448  124.1933 C   0  0  0  0  0  0  0  0  0  0  0  0
  -15.2412  208.8418  125.1304 N   0  0  0  0  0  0  0  0  0  0  0  0
  -14.0586  209.0966  125.7876 C   0  0  0  0  0  0  0  0  0  0  0  0
  -13.6035  207.8326  125.9563 N   0  0  0  0  0  0  0  0  0  0  0  0
  -14.9989  203.5670  124.7644 N   0  0  0  0  0  0  0  0  0  0  0  0
  -14.2950  203.4153  125.4868 H   0  0  0  0  0  0  0  0  0  0  0  0
  -14.6450  203.2304  123.8689 H   0  0  0  0  0  0  0  0  0  0  0  0
  -17.5607  207.5540  123.6797 O   0  0  0  0  0  0  0  0  0  0  0  0
  -17.2969  207.8412  122.2737 C   0  0  0  0  0  0  0  0  0  0  0  0
  -18.1481  209.1594  122.0681 C   0  0  0  0  0  0  0  0  0  0  0  0
  -18.6461  209.5795  123.4920 C   0  0  0  0  0  0  0  0  0  0  0  0
  -19.2425  210.9807  123.3564 C   0  0  0  0  0  0  0  0  0  0  0  0
  -17.9487  211.8158  123.5055 C   0  0  0  0  0  0  0  0  0  0  0  0
  -17.4908  211.5800  122.0046 C   0  0  0  0  0  0  0  0  0  0  0  0
  -16.9620  210.1251  122.1750 C   0  0  0  0  0  0  0  0  0  0  0  0
  1  6  2  0  0  0  0
  2 10  1  1  0  0  0
  2  1  1  0  0  0  0
  3  4  2  0  0  0  0
  3  2  1  0  0  0  0
  4  5  1  0  0  0  0
  5  6  1  0  0  0  0
  6 13  1  0  0  0  0
  7  5  2  0  0  0  0
  8  7  1  0  0  0  0
  9  8  2  0  0  0  0
  9  4  1  0  0  0  0
 10 11  1  0  0  0  0
 10 12  1  0  0  0  0
 13 14  1  0  0  0  0
 14 15  1  0  0  0  0
 15 16  1  0  0  0  0
 15 20  1  0  0  0  0
 16 17  1  0  0  0  0
 17 18  1  0  0  0  0
 18 19  1  0  0  0  0
 20 19  1  0  0  0  0
M  END
>  <minimizedAffinity>
-0.00013

$$$$
