
 OpenBabel07192212403D

 28 31  0  0  0  0  0  0  0  0999 V2000
  -13.9009  208.3014  116.7627 C   0  0  2  0  0  0  0  0  0  0  0  0
  -14.2268  209.5710  117.4529 C   0  0  0  0  0  0  0  0  0  0  0  0
  -12.6749  207.8046  117.5285 C   0  0  0  0  0  0  0  0  0  0  0  0
  -15.1650  210.3052  117.1416 O   0  0  0  0  0  0  0  0  0  0  0  0
  -13.3813  209.7717  118.4175 N   0  0  0  0  0  0  0  0  0  0  0  0
  -12.4701  208.7990  118.5044 C   0  0  0  0  0  0  0  0  0  0  0  0
  -11.7996  206.6819  117.4680 C   0  0  0  0  0  0  0  0  0  0  0  0
  -10.7209  206.5999  118.4073 C   0  0  0  0  0  0  0  0  0  0  0  0
  -10.5279  207.6153  119.3811 C   0  0  0  0  0  0  0  0  0  0  0  0
  -11.4095  208.7282  119.4415 C   0  0  0  0  0  0  0  0  0  0  0  0
  -13.4087  210.5522  119.0169 H   0  0  0  0  0  0  0  0  0  0  0  0
  -15.9126  206.3496  114.6492 C   0  0  0  0  0  0  0  0  0  0  0  0
  -15.6123  207.2523  113.6148 C   0  0  0  0  0  0  0  0  0  0  0  0
  -16.7591  205.2300  114.4298 C   0  0  0  0  0  0  0  0  0  0  0  0
  -15.2983  206.7056  115.7843 N   0  0  0  0  0  0  0  0  0  0  0  0
  -16.1408  207.1025  112.3022 C   0  0  0  0  0  0  0  0  0  0  0  0
  -14.7073  208.2443  114.2817 C   0  0  0  0  0  0  0  0  0  0  0  0
  -16.9946  205.9840  112.0644 C   0  0  0  0  0  0  0  0  0  0  0  0
  -17.3015  205.0574  113.1173 C   0  0  0  0  0  0  0  0  0  0  0  0
  -14.2176  209.2080  113.7290 O   0  0  0  0  0  0  0  0  0  0  0  0
  -14.5799  207.8071  115.6872 C   0  0  0  0  0  0  0  0  0  0  0  0
   -9.6484  205.1915  118.2970 S   0  0  0  0  0  0  0  0  0  0  0  0
  -10.2227  204.2088  119.2519 O   0  0  0  0  0  0  0  0  0  0  0  0
   -8.3244  205.5713  118.7395 O   0  0  0  0  0  0  0  0  0  0  0  0
   -9.8201  204.6400  116.9687 O   0  0  0  0  0  0  0  0  0  0  0  0
  -11.1106  203.9525  118.9572 H   0  0  0  0  0  0  0  0  0  0  0  0
   -8.3734  205.9208  119.6430 H   0  0  0  0  0  0  0  0  0  0  0  0
  -10.7571  204.4369  116.8215 H   0  0  0  0  0  0  0  0  0  0  0  0
  1  3  1  0  0  0  0
  1 21  1  6  0  0  0
  2  1  1  0  0  0  0
  3  7  1  0  0  0  0
  4  2  2  0  0  0  0
  5  2  1  0  0  0  0
  5  6  1  0  0  0  0
  5 11  1  0  0  0  0
  6  3  2  0  0  0  0
  8  7  2  0  0  0  0
  8 22  1  0  0  0  0
  9  8  1  0  0  0  0
 10  6  1  0  0  0  0
 10  9  2  0  0  0  0
 12 13  1  0  0  0  0
 13 16  2  0  0  0  0
 14 12  2  0  0  0  0
 14 19  1  0  0  0  0
 15 21  2  0  0  0  0
 15 12  1  0  0  0  0
 17 13  1  0  0  0  0
 17 20  2  0  0  0  0
 18 16  1  0  0  0  0
 19 18  2  0  0  0  0
 21 17  1  0  0  0  0
 22 25  1  0  0  0  0
 22 24  1  0  0  0  0
 23 22  1  0  0  0  0
 23 26  1  0  0  0  0
 24 27  1  0  0  0  0
 25 28  1  0  0  0  0
M  END
>  <minimizedAffinity>
-0.00009

$$$$
