
 OpenBabel07192212403D

 20 22  0  0  0  0  0  0  0  0999 V2000
  -12.6002  202.8194  109.9352 N   0  0  0  0  0  0  0  0  0  0  0  0
  -11.3768  202.8024  110.4484 C   0  0  1  0  0  0  0  0  0  0  0  0
  -10.9791  201.7169  111.1388 N   0  0  0  0  0  0  0  0  0  0  0  0
  -11.7716  200.6653  111.3040 C   0  0  0  0  0  0  0  0  0  0  0  0
  -13.0328  200.7097  110.7959 C   0  0  0  0  0  0  0  0  0  0  0  0
  -13.4771  201.8275  110.0947 C   0  0  0  0  0  0  0  0  0  0  0  0
  -13.5210  199.5267  111.1420 N   0  0  0  0  0  0  0  0  0  0  0  0
  -12.6853  198.7266  111.8882 C   0  0  0  0  0  0  0  0  0  0  0  0
  -11.5740  199.4997  111.9107 N   0  0  0  0  0  0  0  0  0  0  0  0
  -10.3645  203.6994  110.3414 N   0  0  0  0  0  0  0  0  0  0  0  0
   -9.4797  203.2410  110.5590 H   0  0  0  0  0  0  0  0  0  0  0  0
  -10.5197  204.4668  110.9951 H   0  0  0  0  0  0  0  0  0  0  0  0
  -14.7714  201.7932  109.5792 O   0  0  0  0  0  0  0  0  0  0  0  0
  -15.6656  202.4295  110.5407 C   0  0  0  0  0  0  0  0  0  0  0  0
  -17.0321  201.7024  110.2119 C   0  0  0  0  0  0  0  0  0  0  0  0
  -16.6817  200.5587  109.2014 C   0  0  0  0  0  0  0  0  0  0  0  0
  -17.9289  199.6836  109.0740 C   0  0  0  0  0  0  0  0  0  0  0  0
  -17.7025  198.7516  110.2879 C   0  0  0  0  0  0  0  0  0  0  0  0
  -18.2334  199.8118  111.3424 C   0  0  0  0  0  0  0  0  0  0  0  0
  -16.9661  200.7160  111.3838 C   0  0  0  0  0  0  0  0  0  0  0  0
  1  6  2  0  0  0  0
  2 10  1  6  0  0  0
  2  1  1  0  0  0  0
  3  4  2  0  0  0  0
  3  2  1  0  0  0  0
  4  5  1  0  0  0  0
  5  6  1  0  0  0  0
  6 13  1  0  0  0  0
  7  5  2  0  0  0  0
  8  7  1  0  0  0  0
  9  8  2  0  0  0  0
  9  4  1  0  0  0  0
 10 11  1  0  0  0  0
 10 12  1  0  0  0  0
 13 14  1  0  0  0  0
 14 15  1  0  0  0  0
 15 16  1  0  0  0  0
 15 20  1  0  0  0  0
 16 17  1  0  0  0  0
 17 18  1  0  0  0  0
 18 19  1  0  0  0  0
 20 19  1  0  0  0  0
M  END
>  <minimizedAffinity>
-0.00016

$$$$
