
 OpenBabel07192212403D

 39 41  0  0  0  0  0  0  0  0999 V2000
  -14.3607  205.0618  118.5606 C   0  0  1  0  0  0  0  0  0  0  0  0
  -12.9096  204.8483  118.4618 O   0  0  0  0  0  0  0  0  0  0  0  0
  -14.4573  206.5862  118.4619 C   0  0  1  0  0  0  0  0  0  0  0  0
  -15.7244  207.1131  118.8732 O   0  0  0  0  0  0  0  0  0  0  0  0
  -13.2932  207.0403  119.3509 C   0  0  1  0  0  0  0  0  0  0  0  0
  -13.6058  207.3817  120.6948 O   0  0  0  0  0  0  0  0  0  0  0  0
  -12.3307  205.8527  119.3085 C   0  0  2  0  0  0  0  0  0  0  0  0
  -15.9020  206.8496  119.7897 H   0  0  0  0  0  0  0  0  0  0  0  0
  -13.9738  206.6070  121.1479 H   0  0  0  0  0  0  0  0  0  0  0  0
  -11.0547  206.4216  118.8880 N   0  0  0  0  0  0  0  0  0  0  0  0
  -10.5186  207.5723  119.3991 C   0  0  0  0  0  0  0  0  0  0  0  0
   -9.3066  207.8507  118.9472 N   0  0  0  0  0  0  0  0  0  0  0  0
   -9.0059  206.7755  118.1150 C   0  0  0  0  0  0  0  0  0  0  0  0
   -7.8664  206.4892  117.3260 C   0  0  0  0  0  0  0  0  0  0  0  0
   -6.8040  207.3074  117.2891 N   0  0  0  0  0  0  0  0  0  0  0  0
   -7.8827  205.3297  116.6156 N   0  0  0  0  0  0  0  0  0  0  0  0
   -8.9654  204.5324  116.6926 C   0  0  0  0  0  0  0  0  0  0  0  0
  -10.0897  204.6973  117.3999 N   0  0  0  0  0  0  0  0  0  0  0  0
  -10.0586  205.8579  118.0967 C   0  0  0  0  0  0  0  0  0  0  0  0
   -6.0264  207.0796  116.7298 H   0  0  0  0  0  0  0  0  0  0  0  0
   -6.8018  208.1357  117.8212 H   0  0  0  0  0  0  0  0  0  0  0  0
  -15.3447  204.2457  117.6981 C   0  0  0  0  0  0  0  0  0  0  0  0
  -14.9382  203.8951  116.3486 O   0  0  0  0  0  0  0  0  0  0  0  0
  -15.2028  204.5388  114.9930 P   0  0  2  0  0  0  0  0  0  0  0  0
  -16.6555  204.3934  114.6394 O   0  0  0  0  0  0  0  0  0  0  0  0
  -14.2058  204.1046  113.9490 O   0  0  0  0  0  0  0  0  0  0  0  0
  -16.9288  203.4716  114.7677 H   0  0  0  0  0  0  0  0  0  0  0  0
  -14.2501  205.8843  114.9526 O   0  0  0  0  0  0  0  0  0  0  0  0
  -12.6209  205.7091  115.0570 P   0  0  2  0  0  0  0  0  0  0  0  0
  -12.0259  205.9813  113.6974 O   0  0  0  0  0  0  0  0  0  0  0  0
  -12.4457  204.4270  115.8338 O   0  0  0  0  0  0  0  0  0  0  0  0
  -12.8366  203.6916  115.3364 H   0  0  0  0  0  0  0  0  0  0  0  0
  -12.0557  207.1637  115.6420 O   0  0  0  0  0  0  0  0  0  0  0  0
  -10.9343  208.3437  115.2234 P   0  0  0  0  0  0  0  0  0  0  0  0
  -11.7074  209.2626  114.2946 O   0  0  0  0  0  0  0  0  0  0  0  0
   -9.7988  207.5417  114.6104 O   0  0  0  0  0  0  0  0  0  0  0  0
  -10.5537  209.1072  116.4805 O   0  0  0  0  0  0  0  0  0  0  0  0
  -10.1176  207.0849  113.8163 H   0  0  0  0  0  0  0  0  0  0  0  0
  -11.3264  209.5917  116.8108 H   0  0  0  0  0  0  0  0  0  0  0  0
  1 22  1  6  0  0  0
  2  1  1  0  0  0  0
  3  1  1  0  0  0  0
  3  4  1  1  0  0  0
  4  8  1  0  0  0  0
  5  6  1  1  0  0  0
  5  3  1  0  0  0  0
  6  9  1  0  0  0  0
  7 10  1  6  0  0  0
  7  5  1  0  0  0  0
  7  2  1  0  0  0  0
 11 10  1  0  0  0  0
 12 11  2  0  0  0  0
 13 19  1  0  0  0  0
 13 12  1  0  0  0  0
 14 13  2  0  0  0  0
 15 14  1  0  0  0  0
 15 20  1  0  0  0  0
 15 21  1  0  0  0  0
 16 14  1  0  0  0  0
 16 17  2  0  0  0  0
 17 18  1  0  0  0  0
 18 19  2  0  0  0  0
 19 10  1  0  0  0  0
 23 22  1  0  0  0  0
 23 24  1  0  0  0  0
 24 26  2  6  0  0  0
 24 28  1  0  0  0  0
 24 25  1  0  0  0  0
 25 27  1  0  0  0  0
 28 29  1  0  0  0  0
 29 30  2  6  0  0  0
 29 31  1  0  0  0  0
 29 33  1  0  0  0  0
 31 32  1  0  0  0  0
 33 34  1  0  0  0  0
 34 37  1  0  0  0  0
 34 36  1  0  0  0  0
 35 34  2  0  0  0  0
 36 38  1  0  0  0  0
 37 39  1  0  0  0  0
M  END
>  <minimizedAffinity>
-0.00070

$$$$
