
 OpenBabel07192212403D

 28 31  0  0  0  0  0  0  0  0999 V2000
  -15.3990  204.7575  119.1265 C   0  0  2  0  0  0  0  0  0  0  0  0
  -16.7923  205.0613  119.5280 C   0  0  0  0  0  0  0  0  0  0  0  0
  -15.4032  205.0658  117.6294 C   0  0  0  0  0  0  0  0  0  0  0  0
  -17.2217  204.9425  120.6758 O   0  0  0  0  0  0  0  0  0  0  0  0
  -17.4650  205.4661  118.4939 N   0  0  0  0  0  0  0  0  0  0  0  0
  -16.7250  205.4837  117.3821 C   0  0  0  0  0  0  0  0  0  0  0  0
  -14.4631  205.0222  116.5595 C   0  0  0  0  0  0  0  0  0  0  0  0
  -14.8964  205.4024  115.2479 C   0  0  0  0  0  0  0  0  0  0  0  0
  -16.2351  205.8165  115.0175 C   0  0  0  0  0  0  0  0  0  0  0  0
  -17.1655  205.8657  116.0906 C   0  0  0  0  0  0  0  0  0  0  0  0
  -18.4129  205.7302  118.5257 H   0  0  0  0  0  0  0  0  0  0  0  0
  -12.5367  204.4329  121.1328 C   0  0  0  0  0  0  0  0  0  0  0  0
  -12.9687  203.1335  121.4492 C   0  0  0  0  0  0  0  0  0  0  0  0
  -11.3346  204.9636  121.6728 C   0  0  0  0  0  0  0  0  0  0  0  0
  -13.3926  205.0270  120.2919 N   0  0  0  0  0  0  0  0  0  0  0  0
  -12.2374  202.2855  122.3270 C   0  0  0  0  0  0  0  0  0  0  0  0
  -14.2441  203.0009  120.6722 C   0  0  0  0  0  0  0  0  0  0  0  0
  -11.0280  202.8032  122.8801 C   0  0  0  0  0  0  0  0  0  0  0  0
  -10.5811  204.1288  122.5571 C   0  0  0  0  0  0  0  0  0  0  0  0
  -14.9493  202.0126  120.6721 O   0  0  0  0  0  0  0  0  0  0  0  0
  -14.4346  204.2862  119.9691 C   0  0  0  0  0  0  0  0  0  0  0  0
  -13.7002  205.3290  113.9404 S   0  0  0  0  0  0  0  0  0  0  0  0
  -13.1318  206.7002  113.8765 O   0  0  0  0  0  0  0  0  0  0  0  0
  -14.3783  205.0337  112.6970 O   0  0  0  0  0  0  0  0  0  0  0  0
  -12.6399  204.4527  114.3942 O   0  0  0  0  0  0  0  0  0  0  0  0
  -12.6765  206.9006  114.7093 H   0  0  0  0  0  0  0  0  0  0  0  0
  -15.0570  205.7066  112.5312 H   0  0  0  0  0  0  0  0  0  0  0  0
  -12.2871  204.7812  115.2359 H   0  0  0  0  0  0  0  0  0  0  0  0
  1  3  1  0  0  0  0
  1 21  1  6  0  0  0
  2  1  1  0  0  0  0
  3  7  1  0  0  0  0
  4  2  2  0  0  0  0
  5  2  1  0  0  0  0
  5  6  1  0  0  0  0
  5 11  1  0  0  0  0
  6  3  2  0  0  0  0
  8  7  2  0  0  0  0
  8 22  1  0  0  0  0
  9  8  1  0  0  0  0
 10  6  1  0  0  0  0
 10  9  2  0  0  0  0
 12 13  1  0  0  0  0
 13 16  2  0  0  0  0
 14 12  2  0  0  0  0
 14 19  1  0  0  0  0
 15 21  2  0  0  0  0
 15 12  1  0  0  0  0
 17 13  1  0  0  0  0
 17 20  2  0  0  0  0
 18 16  1  0  0  0  0
 19 18  2  0  0  0  0
 21 17  1  0  0  0  0
 22 25  1  0  0  0  0
 22 24  1  0  0  0  0
 23 22  1  0  0  0  0
 23 26  1  0  0  0  0
 24 27  1  0  0  0  0
 25 28  1  0  0  0  0
M  END
>  <minimizedAffinity>
-0.00008

$$$$
