
 OpenBabel07192212403D

 22 23  0  0  0  0  0  0  0  0999 V2000
  -15.1188  206.8436  114.8737 N   0  0  0  0  0  0  0  0  0  0  0  0
  -15.2543  205.6373  115.4870 C   0  0  0  0  0  0  0  0  0  0  0  0
  -15.8833  205.5160  116.8368 C   0  0  0  0  0  0  0  0  0  0  0  0
  -15.9319  204.1716  117.3799 N   0  0  0  0  0  0  0  0  0  0  0  0
  -16.4571  204.0154  118.4949 O   0  0  0  0  0  0  0  0  0  0  0  0
  -16.2854  206.6503  117.4120 C   0  0  0  0  0  0  0  0  0  0  0  0
  -16.8279  206.6766  118.5938 N   0  0  0  0  0  0  0  0  0  0  0  0
  -16.1014  207.8903  116.6432 N   0  0  0  0  0  0  0  0  0  0  0  0
  -15.5582  208.0018  115.5095 C   0  0  0  0  0  0  0  0  0  0  0  0
  -15.3822  209.1298  114.8701 N   0  0  0  0  0  0  0  0  0  0  0  0
  -16.5049  203.1601  118.8746 H   0  0  0  0  0  0  0  0  0  0  0  0
  -17.1123  207.5337  118.9859 H   0  0  0  0  0  0  0  0  0  0  0  0
  -15.6756  209.9771  115.2767 H   0  0  0  0  0  0  0  0  0  0  0  0
  -14.9564  209.1313  113.9824 H   0  0  0  0  0  0  0  0  0  0  0  0
  -14.7671  204.5172  114.8100 O   0  0  0  0  0  0  0  0  0  0  0  0
  -13.3198  204.4485  114.7045 C   0  0  0  0  0  0  0  0  0  0  0  0
  -12.9317  203.1070  115.3319 C   0  0  0  0  0  0  0  0  0  0  0  0
  -12.4987  203.2421  116.8058 C   0  0  0  0  0  0  0  0  0  0  0  0
  -12.0155  201.8553  117.3255 C   0  0  0  0  0  0  0  0  0  0  0  0
  -13.1931  200.8305  117.1871 C   0  0  0  0  0  0  0  0  0  0  0  0
  -13.4706  200.6534  115.6682 C   0  0  0  0  0  0  0  0  0  0  0  0
  -14.0287  202.0202  115.1528 C   0  0  0  0  0  0  0  0  0  0  0  0
  1  2  2  0  0  0  0
  2 15  1  0  0  0  0
  3  4  2  0  0  0  0
  3  2  1  0  0  0  0
  5  4  1  0  0  0  0
  5 11  1  0  0  0  0
  6  3  1  0  0  0  0
  7  6  2  0  0  0  0
  7 12  1  0  0  0  0
  8  6  1  0  0  0  0
  8  9  2  0  0  0  0
  9  1  1  0  0  0  0
 10  9  1  0  0  0  0
 10 13  1  0  0  0  0
 10 14  1  0  0  0  0
 15 16  1  0  0  0  0
 16 17  1  0  0  0  0
 17 18  1  0  0  0  0
 17 22  1  0  0  0  0
 18 19  1  0  0  0  0
 19 20  1  0  0  0  0
 21 20  1  0  0  0  0
 22 21  1  0  0  0  0
M  END
>  <minimizedAffinity>
-0.00040

$$$$
