
 OpenBabel07192212403D

 23 25  0  0  0  0  0  0  0  0999 V2000
  -19.5362  204.8869  108.7464 Br  0  0  0  0  0  0  0  0  0  0  0  0
  -14.7193  206.8161  107.4248 O   0  0  0  0  0  0  0  0  0  0  0  0
  -12.5723  202.4056  112.8709 O   0  0  0  0  0  0  0  0  0  0  0  0
  -16.8470  205.4513  108.3888 N   0  0  0  0  0  0  0  0  0  0  0  0
  -13.1986  205.3520  108.3125 N   0  0  0  0  0  0  0  0  0  0  0  0
  -14.4720  201.3260  113.5868 N   0  0  0  0  0  0  0  0  0  0  0  0
  -15.9895  202.3430  112.2819 N   0  0  0  0  0  0  0  0  0  0  0  0
  -16.7403  200.7085  113.7567 N   0  0  0  0  0  0  0  0  0  0  0  0
  -17.7342  204.8277  109.1671 C   0  0  2  0  0  0  0  0  0  0  0  0
  -17.1209  204.2015  110.2116 C   0  0  0  0  0  0  0  0  0  0  0  0
  -15.7296  204.4473  110.0625 C   0  0  0  0  0  0  0  0  0  0  0  0
  -15.6081  205.2540  108.8897 C   0  0  0  0  0  0  0  0  0  0  0  0
  -14.4786  205.8536  108.1646 C   0  0  0  0  0  0  0  0  0  0  0  0
  -12.7484  204.2259  109.1471 C   0  0  0  0  0  0  0  0  0  0  0  0
  -13.1394  204.3621  110.6075 C   0  0  0  0  0  0  0  0  0  0  0  0
  -14.5572  203.8750  110.8941 C   0  0  0  0  0  0  0  0  0  0  0  0
  -14.7709  202.9168  111.8901 C   0  0  0  0  0  0  0  0  0  0  0  0
  -13.7969  202.2126  112.8187 C   0  0  0  0  0  0  0  0  0  0  0  0
  -15.7601  201.4221  113.2366 C   0  0  0  0  0  0  0  0  0  0  0  0
  -12.4973  205.8068  107.7922 H   0  0  0  0  0  0  0  0  0  0  0  0
  -16.8732  202.5769  111.9164 H   0  0  0  0  0  0  0  0  0  0  0  0
  -17.6644  200.8395  113.4434 H   0  0  0  0  0  0  0  0  0  0  0  0
  -16.5477  200.0450  114.4580 H   0  0  0  0  0  0  0  0  0  0  0  0
  2 13  2  0  0  0  0
  3 18  2  0  0  0  0
  4  9  1  0  0  0  0
  5 13  1  0  0  0  0
  5 14  1  0  0  0  0
  5 20  1  0  0  0  0
  6 19  2  0  0  0  0
  7 19  1  0  0  0  0
  7 21  1  0  0  0  0
  8 22  1  0  0  0  0
  8 23  1  0  0  0  0
  9 10  1  0  0  0  0
  9  1  1  6  0  0  0
 11 16  1  0  0  0  0
 11 10  2  0  0  0  0
 12  4  2  0  0  0  0
 12 11  1  0  0  0  0
 13 12  1  0  0  0  0
 14 15  1  0  0  0  0
 15 16  1  0  0  0  0
 16 17  2  0  0  0  0
 17 18  1  0  0  0  0
 17  7  1  0  0  0  0
 18  6  1  0  0  0  0
 19  8  1  0  0  0  0
M  END
>  <minimizedAffinity>
0.00000

$$$$
