
 OpenBabel07192212403D

 39 41  0  0  0  0  0  0  0  0999 V2000
  -11.5397  201.6851  114.5536 C   0  0  1  0  0  0  0  0  0  0  0  0
  -10.6236  201.8897  115.6443 O   0  0  0  0  0  0  0  0  0  0  0  0
  -11.4350  200.2115  114.1334 C   0  0  1  0  0  0  0  0  0  0  0  0
  -10.3932  200.2126  113.1034 O   0  0  0  0  0  0  0  0  0  0  0  0
  -10.8266  199.6025  115.4512 C   0  0  1  0  0  0  0  0  0  0  0  0
  -10.1318  198.3866  115.0764 O   0  0  0  0  0  0  0  0  0  0  0  0
   -9.8777  200.7418  115.9272 C   0  0  2  0  0  0  0  0  0  0  0  0
   -9.6037  200.6628  113.4425 H   0  0  0  0  0  0  0  0  0  0  0  0
   -9.4930  198.5829  114.3734 H   0  0  0  0  0  0  0  0  0  0  0  0
   -9.7226  200.8375  117.3891 N   0  0  0  0  0  0  0  0  0  0  0  0
   -9.1139  201.8854  118.0110 C   0  0  0  0  0  0  0  0  0  0  0  0
   -9.3731  202.0710  119.2438 N   0  0  0  0  0  0  0  0  0  0  0  0
  -10.1825  201.0809  119.5451 C   0  0  0  0  0  0  0  0  0  0  0  0
  -10.7807  200.7869  120.7511 C   0  0  0  0  0  0  0  0  0  0  0  0
  -10.6718  201.4503  121.8930 N   0  0  0  0  0  0  0  0  0  0  0  0
  -11.5990  199.7101  120.7653 N   0  0  0  0  0  0  0  0  0  0  0  0
  -11.7929  198.9846  119.6193 C   0  0  0  0  0  0  0  0  0  0  0  0
  -11.2608  199.1922  118.4226 N   0  0  0  0  0  0  0  0  0  0  0  0
  -10.4458  200.2774  118.4497 C   0  0  0  0  0  0  0  0  0  0  0  0
  -11.1535  201.1367  122.6923 H   0  0  0  0  0  0  0  0  0  0  0  0
  -10.1093  202.2568  121.9421 H   0  0  0  0  0  0  0  0  0  0  0  0
  -12.9586  201.9950  115.0301 C   0  0  0  0  0  0  0  0  0  0  0  0
  -12.8491  202.5068  116.3979 O   0  0  0  0  0  0  0  0  0  0  0  0
  -13.8306  201.7696  117.3826 P   0  0  2  0  0  0  0  0  0  0  0  0
  -13.7079  200.2705  117.2613 O   0  0  0  0  0  0  0  0  0  0  0  0
  -15.2531  202.0997  117.1402 O   0  0  0  0  0  0  0  0  0  0  0  0
  -14.0177  199.9905  116.3858 H   0  0  0  0  0  0  0  0  0  0  0  0
  -13.2949  202.1489  118.8660 O   0  0  0  0  0  0  0  0  0  0  0  0
  -13.9321  202.8942  120.1608 P   0  0  2  0  0  0  0  0  0  0  0  0
  -13.6457  202.1387  121.3669 O   0  0  0  0  0  0  0  0  0  0  0  0
  -15.3937  202.9822  119.9179 O   0  0  0  0  0  0  0  0  0  0  0  0
  -15.7878  202.0990  119.9934 H   0  0  0  0  0  0  0  0  0  0  0  0
  -13.2661  204.3326  120.0416 O   0  0  0  0  0  0  0  0  0  0  0  0
  -11.7847  204.6497  119.5811 P   0  0  0  0  0  0  0  0  0  0  0  0
  -11.4296  204.0588  118.2846 O   0  0  0  0  0  0  0  0  0  0  0  0
  -11.5987  206.1219  119.5663 O   0  0  0  0  0  0  0  0  0  0  0  0
  -10.8375  204.1494  120.6261 O   0  0  0  0  0  0  0  0  0  0  0  0
  -10.5140  204.2905  118.0636 H   0  0  0  0  0  0  0  0  0  0  0  0
  -11.0687  204.5375  121.4845 H   0  0  0  0  0  0  0  0  0  0  0  0
  1 22  1  1  0  0  0
  1  3  1  0  0  0  0
  2  1  1  0  0  0  0
  3  4  1  6  0  0  0
  4  8  1  0  0  0  0
  5  6  1  6  0  0  0
  5  3  1  0  0  0  0
  6  9  1  0  0  0  0
  7 10  1  1  0  0  0
  7  2  1  0  0  0  0
  7  5  1  0  0  0  0
 11 10  1  0  0  0  0
 12 11  2  0  0  0  0
 13 19  1  0  0  0  0
 13 12  1  0  0  0  0
 14 13  2  0  0  0  0
 15 14  1  0  0  0  0
 15 20  1  0  0  0  0
 15 21  1  0  0  0  0
 16 14  1  0  0  0  0
 16 17  2  0  0  0  0
 17 18  1  0  0  0  0
 18 19  2  0  0  0  0
 19 10  1  0  0  0  0
 23 22  1  0  0  0  0
 23 24  1  0  0  0  0
 24 26  2  6  0  0  0
 24 25  1  0  0  0  0
 24 28  1  0  0  0  0
 25 27  1  0  0  0  0
 28 29  1  0  0  0  0
 29 30  2  1  0  0  0
 29 31  1  0  0  0  0
 29 33  1  0  0  0  0
 31 32  1  0  0  0  0
 34 33  1  0  0  0  0
 34 35  1  0  0  0  0
 35 38  1  0  0  0  0
 36 34  2  0  0  0  0
 37 34  1  0  0  0  0
 37 39  1  0  0  0  0
M  END
>  <minimizedAffinity>
-0.00040

$$$$
