


 39 41  0  0  0  0  0  0  0  0999 V2000
  -13.4255  201.9644  119.4061 C   0  0  0  0  0  0  0  0  0  0  0  0
  -14.2739  201.4310  118.3735 O   0  0  0  0  0  0  0  0  0  0  0  0
  -12.4246  202.9165  118.7345 C   0  0  0  0  0  0  0  0  0  0  0  0
  -11.2856  202.0554  118.4069 O   0  0  0  0  0  0  0  0  0  0  0  0
  -13.2067  203.2288  117.4048 C   0  0  0  0  0  0  0  0  0  0  0  0
  -12.2228  203.6198  116.4146 O   0  0  0  0  0  0  0  0  0  0  0  0
  -13.8887  201.8622  117.1008 C   0  0  0  0  0  0  0  0  0  0  0  0
  -11.5979  201.2785  117.9171 H   0  0  0  0  0  0  0  0  0  0  0  0
  -11.5416  202.9326  116.3468 H   0  0  0  0  0  0  0  0  0  0  0  0
  -15.1875  201.9666  116.4134 N   0  0  0  0  0  0  0  0  0  0  0  0
  -16.0353  200.9132  116.2496 C   0  0  0  0  0  0  0  0  0  0  0  0
  -17.2592  201.1725  116.0122 N   0  0  0  0  0  0  0  0  0  0  0  0
  -17.2960  202.4847  115.9607 C   0  0  0  0  0  0  0  0  0  0  0  0
  -18.3732  203.3132  115.7330 C   0  0  0  0  0  0  0  0  0  0  0  0
  -19.6325  202.9639  115.5139 N   0  0  0  0  0  0  0  0  0  0  0  0
  -18.1223  204.6420  115.7649 N   0  0  0  0  0  0  0  0  0  0  0  0
  -16.8524  205.0912  116.0157 C   0  0  0  0  0  0  0  0  0  0  0  0
  -15.7624  204.3711  116.2428 N   0  0  0  0  0  0  0  0  0  0  0  0
  -16.0541  203.0461  116.2002 C   0  0  0  0  0  0  0  0  0  0  0  0
  -20.3163  203.6560  115.3634 H   0  0  0  0  0  0  0  0  0  0  0  0
  -19.8843  202.0122  115.5017 H   0  0  0  0  0  0  0  0  0  0  0  0
  -14.2854  202.7310  120.4107 C   0  0  0  0  0  0  0  0  0  0  0  0
  -15.6822  202.5352  120.0165 O   0  0  0  0  0  0  0  0  0  0  0  0
  -16.4665  203.8969  119.9324 P   0  0  0  0  0  0  0  0  0  0  0  0
  -15.7166  204.9132  119.1066 O   0  0  0  0  0  0  0  0  0  0  0  0
  -16.7000  204.5156  121.2568 O   0  0  0  0  0  0  0  0  0  0  0  0
  -14.8949  205.1563  119.5611 H   0  0  0  0  0  0  0  0  0  0  0  0
  -17.8173  203.5489  119.1044 O   0  0  0  0  0  0  0  0  0  0  0  0
  -19.4091  203.6461  119.4118 P   0  0  0  0  0  0  0  0  0  0  0  0
  -20.1012  204.2552  118.2904 O   0  0  0  0  0  0  0  0  0  0  0  0
  -19.5506  204.4682  120.6395 O   0  0  0  0  0  0  0  0  0  0  0  0
  -19.3392  205.3927  120.4358 H   0  0  0  0  0  0  0  0  0  0  0  0
  -19.7515  202.1256  119.7243 O   0  0  0  0  0  0  0  0  0  0  0  0
  -19.1480  200.8553  118.9968 P   0  0  0  0  0  0  0  0  0  0  0  0
  -17.6800  200.8260  118.9794 O   0  0  0  0  0  0  0  0  0  0  0  0
  -19.6992  199.6361  119.6387 O   0  0  0  0  0  0  0  0  0  0  0  0
  -19.6579  200.8176  117.5903 O   0  0  0  0  0  0  0  0  0  0  0  0
  -17.3780  200.0261  118.5213 H   0  0  0  0  0  0  0  0  0  0  0  0
  -20.6276  200.8368  117.5973 H   0  0  0  0  0  0  0  0  0  0  0  0
 15 14  1  0  0  0
 16 14  1  0  0  0
 16 17  2  0  0  0
 14 13  2  0  0  0
 17 18  1  0  0  0
 13 19  1  0  0  0
 13 12  1  0  0  0
 18 19  2  0  0  0
 19 10  1  0  0  0
 12 11  2  0  0  0
 11 10  1  0  0  0
 10  7  1  0  0  0
  7  2  1  0  0  0
  7  5  1  0  0  0
  2  1  1  0  0  0
  5  6  1  0  0  0
  5  3  1  0  0  0
  1 22  1  0  0  0
  1  3  1  0  0  0
 23 22  1  0  0  0
 23 24  1  0  0  0
 26 24  2  0  0  0
  3  4  1  0  0  0
 24 25  1  0  0  0
 24 28  1  0  0  0
 30 29  2  0  0  0
 36 34  2  0  0  0
 28 29  1  0  0  0
 29 31  1  0  0  0
 29 33  1  0  0  0
 37 34  1  0  0  0
 34 33  1  0  0  0
 34 35  1  0  0  0
 35 38  1  0  0  0
 37 39  1  0  0  0
 31 32  1  0  0  0
 25 27  1  0  0  0
  4  8  1  0  0  0
  6  9  1  0  0  0
 15 20  1  0  0  0
 15 21  1  0  0  0
M  END
> <minimizedAffinity>
-0.00162

$$$$



 39 41  0  0  0  0  0  0  0  0999 V2000
  -11.5397  201.6851  114.5536 C   0  0  0  0  0  0  0  0  0  0  0  0
  -10.6236  201.8897  115.6443 O   0  0  0  0  0  0  0  0  0  0  0  0
  -11.4350  200.2115  114.1334 C   0  0  0  0  0  0  0  0  0  0  0  0
  -10.3932  200.2126  113.1034 O   0  0  0  0  0  0  0  0  0  0  0  0
  -10.8266  199.6025  115.4512 C   0  0  0  0  0  0  0  0  0  0  0  0
  -10.1318  198.3866  115.0764 O   0  0  0  0  0  0  0  0  0  0  0  0
   -9.8777  200.7418  115.9272 C   0  0  0  0  0  0  0  0  0  0  0  0
   -9.6037  200.6628  113.4425 H   0  0  0  0  0  0  0  0  0  0  0  0
   -9.4930  198.5829  114.3734 H   0  0  0  0  0  0  0  0  0  0  0  0
   -9.7226  200.8375  117.3891 N   0  0  0  0  0  0  0  0  0  0  0  0
   -9.1139  201.8854  118.0110 C   0  0  0  0  0  0  0  0  0  0  0  0
   -9.3731  202.0710  119.2438 N   0  0  0  0  0  0  0  0  0  0  0  0
  -10.1825  201.0809  119.5451 C   0  0  0  0  0  0  0  0  0  0  0  0
  -10.7807  200.7869  120.7511 C   0  0  0  0  0  0  0  0  0  0  0  0
  -10.6718  201.4503  121.8930 N   0  0  0  0  0  0  0  0  0  0  0  0
  -11.5990  199.7101  120.7653 N   0  0  0  0  0  0  0  0  0  0  0  0
  -11.7929  198.9846  119.6193 C   0  0  0  0  0  0  0  0  0  0  0  0
  -11.2608  199.1922  118.4226 N   0  0  0  0  0  0  0  0  0  0  0  0
  -10.4458  200.2774  118.4497 C   0  0  0  0  0  0  0  0  0  0  0  0
  -11.1535  201.1367  122.6923 H   0  0  0  0  0  0  0  0  0  0  0  0
  -10.1093  202.2568  121.9421 H   0  0  0  0  0  0  0  0  0  0  0  0
  -12.9586  201.9950  115.0301 C   0  0  0  0  0  0  0  0  0  0  0  0
  -12.8491  202.5068  116.3979 O   0  0  0  0  0  0  0  0  0  0  0  0
  -13.8306  201.7696  117.3826 P   0  0  0  0  0  0  0  0  0  0  0  0
  -13.7079  200.2705  117.2613 O   0  0  0  0  0  0  0  0  0  0  0  0
  -15.2531  202.0997  117.1402 O   0  0  0  0  0  0  0  0  0  0  0  0
  -14.0177  199.9905  116.3858 H   0  0  0  0  0  0  0  0  0  0  0  0
  -13.2949  202.1489  118.8660 O   0  0  0  0  0  0  0  0  0  0  0  0
  -13.9321  202.8942  120.1608 P   0  0  0  0  0  0  0  0  0  0  0  0
  -13.6457  202.1387  121.3669 O   0  0  0  0  0  0  0  0  0  0  0  0
  -15.3937  202.9822  119.9179 O   0  0  0  0  0  0  0  0  0  0  0  0
  -15.7878  202.0990  119.9934 H   0  0  0  0  0  0  0  0  0  0  0  0
  -13.2661  204.3326  120.0416 O   0  0  0  0  0  0  0  0  0  0  0  0
  -11.7847  204.6497  119.5811 P   0  0  0  0  0  0  0  0  0  0  0  0
  -11.4296  204.0588  118.2846 O   0  0  0  0  0  0  0  0  0  0  0  0
  -11.5987  206.1219  119.5663 O   0  0  0  0  0  0  0  0  0  0  0  0
  -10.8375  204.1494  120.6261 O   0  0  0  0  0  0  0  0  0  0  0  0
  -10.5140  204.2905  118.0636 H   0  0  0  0  0  0  0  0  0  0  0  0
  -11.0687  204.5375  121.4845 H   0  0  0  0  0  0  0  0  0  0  0  0
 15 14  1  0  0  0
 16 14  1  0  0  0
 16 17  2  0  0  0
 14 13  2  0  0  0
 17 18  1  0  0  0
 13 19  1  0  0  0
 13 12  1  0  0  0
 18 19  2  0  0  0
 19 10  1  0  0  0
 12 11  2  0  0  0
 11 10  1  0  0  0
 10  7  1  0  0  0
  7  2  1  0  0  0
  7  5  1  0  0  0
  2  1  1  0  0  0
  5  6  1  0  0  0
  5  3  1  0  0  0
  1 22  1  0  0  0
  1  3  1  0  0  0
 23 22  1  0  0  0
 23 24  1  0  0  0
 26 24  2  0  0  0
  3  4  1  0  0  0
 24 25  1  0  0  0
 24 28  1  0  0  0
 30 29  2  0  0  0
 36 34  2  0  0  0
 28 29  1  0  0  0
 29 31  1  0  0  0
 29 33  1  0  0  0
 37 34  1  0  0  0
 34 33  1  0  0  0
 34 35  1  0  0  0
 35 38  1  0  0  0
 37 39  1  0  0  0
 31 32  1  0  0  0
 25 27  1  0  0  0
  4  8  1  0  0  0
  6  9  1  0  0  0
 15 20  1  0  0  0
 15 21  1  0  0  0
M  END
> <minimizedAffinity>
-0.00040

$$$$



 39 41  0  0  0  0  0  0  0  0999 V2000
   -9.2393  208.3274  116.6525 C   0  0  0  0  0  0  0  0  0  0  0  0
   -8.0889  208.1322  117.4946 O   0  0  0  0  0  0  0  0  0  0  0  0
   -9.1502  207.3086  115.5065 C   0  0  0  0  0  0  0  0  0  0  0  0
   -8.4107  208.0197  114.4606 O   0  0  0  0  0  0  0  0  0  0  0  0
   -8.1849  206.2534  116.1639 C   0  0  0  0  0  0  0  0  0  0  0  0
   -7.5321  205.5425  115.0824 O   0  0  0  0  0  0  0  0  0  0  0  0
   -7.2220  207.1615  116.9844 C   0  0  0  0  0  0  0  0  0  0  0  0
   -7.5918  208.3822  114.8331 H   0  0  0  0  0  0  0  0  0  0  0  0
   -7.1098  206.1795  114.4852 H   0  0  0  0  0  0  0  0  0  0  0  0
   -6.7027  206.5451  118.2176 N   0  0  0  0  0  0  0  0  0  0  0  0
   -6.0244  207.2386  119.1738 C   0  0  0  0  0  0  0  0  0  0  0  0
   -5.9694  206.7334  120.3414 N   0  0  0  0  0  0  0  0  0  0  0  0
   -6.6075  205.5916  120.2179 C   0  0  0  0  0  0  0  0  0  0  0  0
   -6.8548  204.6294  121.1726 C   0  0  0  0  0  0  0  0  0  0  0  0
   -6.4995  204.6438  122.4491 N   0  0  0  0  0  0  0  0  0  0  0  0
   -7.5697  203.5552  120.7670 N   0  0  0  0  0  0  0  0  0  0  0  0
   -8.0039  203.4740  119.4701 C   0  0  0  0  0  0  0  0  0  0  0  0
   -7.8123  204.3460  118.4897 N   0  0  0  0  0  0  0  0  0  0  0  0
   -7.0905  205.4060  118.9345 C   0  0  0  0  0  0  0  0  0  0  0  0
   -6.7377  203.8893  123.0350 H   0  0  0  0  0  0  0  0  0  0  0  0
   -5.9973  205.4091  122.8117 H   0  0  0  0  0  0  0  0  0  0  0  0
  -10.5050  208.0832  117.4740 C   0  0  0  0  0  0  0  0  0  0  0  0
  -10.0810  207.8576  118.8575 O   0  0  0  0  0  0  0  0  0  0  0  0
  -10.7256  206.5575  119.4661 P   0  0  0  0  0  0  0  0  0  0  0  0
  -10.5405  205.3718  118.5510 O   0  0  0  0  0  0  0  0  0  0  0  0
  -12.1811  206.6869  119.7033 O   0  0  0  0  0  0  0  0  0  0  0  0
  -11.0462  205.5111  117.7351 H   0  0  0  0  0  0  0  0  0  0  0  0
   -9.8522  206.2430  120.7963 O   0  0  0  0  0  0  0  0  0  0  0  0
  -10.1823  206.1079  122.3808 P   0  0  0  0  0  0  0  0  0  0  0  0
   -9.5473  204.9221  122.9270 O   0  0  0  0  0  0  0  0  0  0  0  0
  -11.6599  206.0262  122.4968 O   0  0  0  0  0  0  0  0  0  0  0  0
  -11.9632  205.1666  122.1650 H   0  0  0  0  0  0  0  0  0  0  0  0
   -9.6641  207.5106  122.9199 O   0  0  0  0  0  0  0  0  0  0  0  0
   -8.3755  208.2900  122.4308 P   0  0  0  0  0  0  0  0  0  0  0  0
   -8.3288  208.5021  120.9785 O   0  0  0  0  0  0  0  0  0  0  0  0
   -8.2963  209.5790  123.1618 O   0  0  0  0  0  0  0  0  0  0  0  0
   -7.1602  207.5273  122.8562 O   0  0  0  0  0  0  0  0  0  0  0  0
   -7.5183  208.9825  120.7478 H   0  0  0  0  0  0  0  0  0  0  0  0
   -7.1872  207.3850  123.8154 H   0  0  0  0  0  0  0  0  0  0  0  0
 15 14  1  0  0  0
 16 14  1  0  0  0
 16 17  2  0  0  0
 14 13  2  0  0  0
 17 18  1  0  0  0
 13 19  1  0  0  0
 13 12  1  0  0  0
 18 19  2  0  0  0
 19 10  1  0  0  0
 12 11  2  0  0  0
 11 10  1  0  0  0
 10  7  1  0  0  0
  7  2  1  0  0  0
  7  5  1  0  0  0
  2  1  1  0  0  0
  5  6  1  0  0  0
  5  3  1  0  0  0
  1 22  1  0  0  0
  1  3  1  0  0  0
 23 22  1  0  0  0
 23 24  1  0  0  0
 26 24  2  0  0  0
  3  4  1  0  0  0
 24 25  1  0  0  0
 24 28  1  0  0  0
 30 29  2  0  0  0
 36 34  2  0  0  0
 28 29  1  0  0  0
 29 31  1  0  0  0
 29 33  1  0  0  0
 37 34  1  0  0  0
 34 33  1  0  0  0
 34 35  1  0  0  0
 35 38  1  0  0  0
 37 39  1  0  0  0
 31 32  1  0  0  0
 25 27  1  0  0  0
  4  8  1  0  0  0
  6  9  1  0  0  0
 15 20  1  0  0  0
 15 21  1  0  0  0
M  END
> <minimizedAffinity>
-0.00036

$$$$
