
 OpenBabel07192212403D

 19 21  0  0  0  0  0  0  0  0999 V2000
  -12.3448  203.8876  118.6700 N   0  0  0  0  0  0  0  0  0  0  0  0
  -17.5869  204.2550  118.3941 C   0  0  0  0  0  0  0  0  0  0  0  0
  -16.2803  204.0316  117.6767 N   0  0  0  0  0  0  0  0  0  0  0  0
  -14.9716  203.9896  118.2040 C   0  0  0  0  0  0  0  0  0  0  0  0
  -14.5941  204.1376  119.5090 N   0  0  0  0  0  0  0  0  0  0  0  0
  -13.2824  204.0745  119.6758 C   0  0  0  0  0  0  0  0  0  0  0  0
  -12.7096  203.7369  117.3399 C   0  0  0  0  0  0  0  0  0  0  0  0
  -14.1453  203.7892  117.0771 C   0  0  0  0  0  0  0  0  0  0  0  0
  -14.8604  203.6895  115.9253 N   0  0  0  0  0  0  0  0  0  0  0  0
  -16.1311  203.8404  116.2901 C   0  0  0  0  0  0  0  0  0  0  0  0
  -11.7411  203.5600  116.3422 N   0  0  0  0  0  0  0  0  0  0  0  0
  -11.1350  202.7845  116.3638 H   0  0  0  0  0  0  0  0  0  0  0  0
  -11.6478  204.5454  115.2720 C   0  0  0  0  0  0  0  0  0  0  0  0
  -11.7795  204.1291  113.9469 C   0  0  0  0  0  0  0  0  0  0  0  0
  -11.7040  205.0521  112.9030 C   0  0  0  0  0  0  0  0  0  0  0  0
  -11.4945  206.4056  113.1762 C   0  0  0  0  0  0  0  0  0  0  0  0
  -11.3619  206.8346  114.5017 C   0  0  0  0  0  0  0  0  0  0  0  0
  -11.1074  208.4987  114.8471 Cl  0  0  0  0  0  0  0  0  0  0  0  0
  -11.4392  205.9055  115.5479 C   0  0  0  0  0  0  0  0  0  0  0  0
  1  6  1  0  0  0  0
  3  2  1  0  0  0  0
  3  4  1  0  0  0  0
  4  5  1  0  0  0  0
  5  6  2  0  0  0  0
  7  1  2  0  0  0  0
  8  4  2  0  0  0  0
  8  7  1  0  0  0  0
  9  8  1  0  0  0  0
 10  9  2  0  0  0  0
 10  3  1  0  0  0  0
 11  7  1  0  0  0  0
 11 13  1  0  0  0  0
 11 12  1  0  0  0  0
 13 19  1  0  0  0  0
 14 13  2  0  0  0  0
 14 15  1  0  0  0  0
 15 16  2  0  0  0  0
 16 17  1  0  0  0  0
 17 18  1  0  0  0  0
 19 17  2  0  0  0  0
M  END
>  <minimizedAffinity>
0.00000

$$$$
