


 21 22  0  0  0  0  0  0  0  0999 V2000
  -13.3580  206.9509  119.7305 N   0  0  0  0  0  0  0  0  0  0  0  0
  -12.8006  207.7627  119.4648 H   0  0  0  0  0  0  0  0  0  0  0  0
  -12.3058  205.6502  119.8746 S   0  0  0  0  0  0  0  0  0  0  0  0
  -12.1952  205.3766  121.2901 O   0  0  0  0  0  0  0  0  0  0  0  0
  -12.7288  204.6335  118.9368 O   0  0  0  0  0  0  0  0  0  0  0  0
  -10.7409  206.3028  119.3429 C   0  0  0  0  0  0  0  0  0  0  0  0
  -10.5464  206.6233  117.9947 C   0  0  0  0  0  0  0  0  0  0  0  0
   -9.3513  207.2329  117.5958 C   0  0  0  0  0  0  0  0  0  0  0  0
   -8.3697  207.5195  118.5464 C   0  0  0  0  0  0  0  0  0  0  0  0
   -8.5623  207.1945  119.8897 C   0  0  0  0  0  0  0  0  0  0  0  0
   -9.7521  206.5834  120.2912 C   0  0  0  0  0  0  0  0  0  0  0  0
   -6.7719  208.3790  118.0141 Br  0  0  0  0  0  0  0  0  0  0  0  0
  -14.1558  207.3355  120.9078 C   0  0  0  0  0  0  0  0  0  0  0  0
  -13.9187  208.7973  121.2993 C   0  0  0  0  0  0  0  0  0  0  0  0
  -12.2246  209.0751  121.9263 S   0  0  0  0  0  0  0  0  0  0  0  0
  -12.0839  209.6424  119.2805 N   0  0  0  0  0  0  0  0  0  0  0  0
  -11.4656  210.1630  118.1963 C   0  0  0  0  0  0  0  0  0  0  0  0
  -10.2354  210.7976  118.2381 C   0  0  0  0  0  0  0  0  0  0  0  0
   -9.5988  210.9062  119.4670 C   0  0  0  0  0  0  0  0  0  0  0  0
  -10.2120  210.3783  120.6007 C   0  0  0  0  0  0  0  0  0  0  0  0
  -11.4489  209.7558  120.4679 C   0  0  0  0  0  0  0  0  0  0  0  0
 16 17  1  0  0  0
 16 21  2  0  0  0
 17 18  2  0  0  0
 18 19  1  0  0  0
 19 20  2  0  0  0
 20 21  1  0  0  0
 21 15  1  0  0  0
 15 14  1  0  0  0
 14 13  1  0  0  0
 13  1  1  0  0  0
  1  3  1  0  0  0
  3  4  2  0  0  0
  3  5  2  0  0  0
  3  6  1  0  0  0
  6  7  1  0  0  0
  6 11  2  0  0  0
  7  8  2  0  0  0
  8  9  1  0  0  0
  9 10  2  0  0  0
  9 12  1  0  0  0
 10 11  1  0  0  0
  1  2  1  0  0  0
M  END
> <minimizedAffinity>
-0.00068

$$$$



 21 22  0  0  0  0  0  0  0  0999 V2000
  -15.7091  209.5515  125.4859 N   0  0  0  0  0  0  0  0  0  0  0  0
  -15.8402  208.5521  125.3296 H   0  0  0  0  0  0  0  0  0  0  0  0
  -15.1835  210.2170  124.0365 S   0  0  0  0  0  0  0  0  0  0  0  0
  -16.2956  210.9818  123.5178 O   0  0  0  0  0  0  0  0  0  0  0  0
  -13.8910  210.8225  124.2711 O   0  0  0  0  0  0  0  0  0  0  0  0
  -14.9712  208.8114  122.9704 C   0  0  0  0  0  0  0  0  0  0  0  0
  -13.9302  207.9085  123.2140 C   0  0  0  0  0  0  0  0  0  0  0  0
  -13.8271  206.7484  122.4378 C   0  0  0  0  0  0  0  0  0  0  0  0
  -14.7656  206.5018  121.4339 C   0  0  0  0  0  0  0  0  0  0  0  0
  -15.8001  207.4055  121.1881 C   0  0  0  0  0  0  0  0  0  0  0  0
  -15.9045  208.5655  121.9584 C   0  0  0  0  0  0  0  0  0  0  0  0
  -14.6496  204.9153  120.4117 Br  0  0  0  0  0  0  0  0  0  0  0  0
  -16.9551  210.0679  126.0785 C   0  0  0  0  0  0  0  0  0  0  0  0
  -17.9835  208.9534  126.2945 C   0  0  0  0  0  0  0  0  0  0  0  0
  -18.6083  208.2787  124.7151 S   0  0  0  0  0  0  0  0  0  0  0  0
  -16.5439  206.6587  125.3899 N   0  0  0  0  0  0  0  0  0  0  0  0
  -15.8151  205.5268  125.2608 C   0  0  0  0  0  0  0  0  0  0  0  0
  -16.1101  204.5155  124.3619 C   0  0  0  0  0  0  0  0  0  0  0  0
  -17.2211  204.6730  123.5445 C   0  0  0  0  0  0  0  0  0  0  0  0
  -17.9898  205.8292  123.6552 C   0  0  0  0  0  0  0  0  0  0  0  0
  -17.6207  206.7956  124.5851 C   0  0  0  0  0  0  0  0  0  0  0  0
 16 17  1  0  0  0
 16 21  2  0  0  0
 17 18  2  0  0  0
 18 19  1  0  0  0
 19 20  2  0  0  0
 20 21  1  0  0  0
 21 15  1  0  0  0
 15 14  1  0  0  0
 14 13  1  0  0  0
 13  1  1  0  0  0
  1  3  1  0  0  0
  3  4  2  0  0  0
  3  5  2  0  0  0
  3  6  1  0  0  0
  6  7  1  0  0  0
  6 11  2  0  0  0
  7  8  2  0  0  0
  8  9  1  0  0  0
  9 10  2  0  0  0
  9 12  1  0  0  0
 10 11  1  0  0  0
  1  2  1  0  0  0
M  END
> <minimizedAffinity>
-0.00042

$$$$



 21 22  0  0  0  0  0  0  0  0999 V2000
  -14.8926  207.0549  108.1846 N   0  0  0  0  0  0  0  0  0  0  0  0
  -15.6037  206.5332  108.6971 H   0  0  0  0  0  0  0  0  0  0  0  0
  -13.4034  206.3878  108.5813 S   0  0  0  0  0  0  0  0  0  0  0  0
  -12.9612  205.6646  107.4099 O   0  0  0  0  0  0  0  0  0  0  0  0
  -12.5972  207.4299  109.1780 O   0  0  0  0  0  0  0  0  0  0  0  0
  -13.7914  205.1814  109.8269 C   0  0  0  0  0  0  0  0  0  0  0  0
  -14.2123  205.6039  111.0929 C   0  0  0  0  0  0  0  0  0  0  0  0
  -14.6162  204.6542  112.0383 C   0  0  0  0  0  0  0  0  0  0  0  0
  -14.6002  203.2978  111.7072 C   0  0  0  0  0  0  0  0  0  0  0  0
  -14.1751  202.8772  110.4464 C   0  0  0  0  0  0  0  0  0  0  0  0
  -13.7684  203.8215  109.5015 C   0  0  0  0  0  0  0  0  0  0  0  0
  -15.1835  202.0177  112.9706 Br  0  0  0  0  0  0  0  0  0  0  0  0
  -15.2958  207.0662  106.7677 C   0  0  0  0  0  0  0  0  0  0  0  0
  -16.6320  206.3483  106.5537 C   0  0  0  0  0  0  0  0  0  0  0  0
  -16.5036  204.5511  106.8595 S   0  0  0  0  0  0  0  0  0  0  0  0
  -17.3161  205.5979  109.2229 N   0  0  0  0  0  0  0  0  0  0  0  0
  -17.8204  205.4896  110.4731 C   0  0  0  0  0  0  0  0  0  0  0  0
  -18.1939  204.2898  111.0549 C   0  0  0  0  0  0  0  0  0  0  0  0
  -18.0420  203.1283  110.3098 C   0  0  0  0  0  0  0  0  0  0  0  0
  -17.5243  203.2097  109.0194 C   0  0  0  0  0  0  0  0  0  0  0  0
  -17.1737  204.4570  108.5130 C   0  0  0  0  0  0  0  0  0  0  0  0
 16 17  1  0  0  0
 16 21  2  0  0  0
 17 18  2  0  0  0
 18 19  1  0  0  0
 19 20  2  0  0  0
 20 21  1  0  0  0
 21 15  1  0  0  0
 15 14  1  0  0  0
 14 13  1  0  0  0
 13  1  1  0  0  0
  1  3  1  0  0  0
  3  4  2  0  0  0
  3  5  2  0  0  0
  3  6  1  0  0  0
  6  7  1  0  0  0
  6 11  2  0  0  0
  7  8  2  0  0  0
  8  9  1  0  0  0
  9 10  2  0  0  0
  9 12  1  0  0  0
 10 11  1  0  0  0
  1  2  1  0  0  0
M  END
> <minimizedAffinity>
-0.00035

$$$$
