


 30 33  0  0  0  0  0  0  0  0999 V2000
  -14.1380  209.8025  117.3571 C   0  0  0  0  0  0  0  0  0  0  0  0
  -14.6019  210.7410  116.4195 C   0  0  0  0  0  0  0  0  0  0  0  0
  -15.9283  211.2139  116.5300 C   0  0  0  0  0  0  0  0  0  0  0  0
  -16.7961  210.7314  117.5144 C   0  0  0  0  0  0  0  0  0  0  0  0
  -16.3615  209.7390  118.3928 C   0  0  0  0  0  0  0  0  0  0  0  0
  -15.0350  209.2814  118.3032 C   0  0  0  0  0  0  0  0  0  0  0  0
  -13.7925  211.2466  115.2549 C   0  0  0  0  0  0  0  0  0  0  0  0
  -17.2992  209.2018  119.4124 C   0  0  0  0  0  0  0  0  0  0  0  0
  -17.0194  208.2306  120.2484 N   0  0  0  0  0  0  0  0  0  0  0  0
  -18.1476  208.0484  120.9956 N   0  0  0  0  0  0  0  0  0  0  0  0
  -18.5314  207.1886  121.9913 C   0  0  0  0  0  0  0  0  0  0  0  0
  -19.7797  207.4723  122.3382 N   0  0  0  0  0  0  0  0  0  0  0  0
  -20.2295  208.5269  121.5567 N   0  0  0  0  0  0  0  0  0  0  0  0
  -19.2333  208.8301  120.7789 C   0  0  0  0  0  0  0  0  0  0  0  0
  -18.9252  209.9485  119.5380 S   0  0  0  0  0  0  0  0  0  0  0  0
  -17.6961  206.1199  122.5736 C   0  0  0  0  0  0  0  0  0  0  0  0
  -12.4112  208.1212  116.7623 C   0  0  0  0  0  0  0  0  0  0  0  0
  -13.1316  207.4091  116.0672 O   0  0  0  0  0  0  0  0  0  0  0  0
  -12.8163  209.2882  117.4034 N   0  0  0  0  0  0  0  0  0  0  0  0
  -12.1444  209.7877  117.9212 H   0  0  0  0  0  0  0  0  0  0  0  0
  -10.9303  207.7844  116.9944 C   0  0  0  0  0  0  0  0  0  0  0  0
  -10.7759  206.8908  118.0907 O   0  0  0  0  0  0  0  0  0  0  0  0
  -13.6058  207.2985  121.1596 C   0  0  0  0  0  0  0  0  0  0  0  0
  -13.7858  206.2882  120.2158 C   0  0  0  0  0  0  0  0  0  0  0  0
  -12.8531  206.1057  119.1776 C   0  0  0  0  0  0  0  0  0  0  0  0
  -11.7324  206.9325  119.0736 C   0  0  0  0  0  0  0  0  0  0  0  0
  -11.5426  207.9237  120.0390 C   0  0  0  0  0  0  0  0  0  0  0  0
  -12.4707  208.1049  121.0711 C   0  0  0  0  0  0  0  0  0  0  0  0
  -14.4432  207.6008  122.1966 O   0  0  0  0  0  0  0  0  0  0  0  0
  -14.4845  208.9534  122.6342 C   0  0  0  0  0  0  0  0  0  0  0  0
 29 23  1  0  0  0
 29 30  1  0  0  0
 23 24  1  0  0  0
 23 28  2  0  0  0
 24 25  2  0  0  0
 25 26  1  0  0  0
 26 27  2  0  0  0
 26 22  1  0  0  0
 27 28  1  0  0  0
 22 21  1  0  0  0
 21 17  1  0  0  0
 17 18  2  0  0  0
 17 19  1  0  0  0
 19  1  1  0  0  0
  1  2  1  0  0  0
  1  6  2  0  0  0
  2  3  2  0  0  0
  2  7  1  0  0  0
  3  4  1  0  0  0
  4  5  2  0  0  0
  5  6  1  0  0  0
  5  8  1  0  0  0
  8  9  2  0  0  0
  8 15  1  0  0  0
  9 10  1  0  0  0
 10 11  1  0  0  0
 10 14  1  0  0  0
 11 12  2  0  0  0
 11 16  1  0  0  0
 12 13  1  0  0  0
 13 14  2  0  0  0
 14 15  1  0  0  0
 19 20  1  0  0  0
M  END
> <minimizedAffinity>
-0.00150

$$$$



 30 33  0  0  0  0  0  0  0  0999 V2000
  -11.8742  209.3367  114.5330 C   0  0  0  0  0  0  0  0  0  0  0  0
  -12.2823  209.8464  113.2885 C   0  0  0  0  0  0  0  0  0  0  0  0
  -13.6138  209.6312  112.8692 C   0  0  0  0  0  0  0  0  0  0  0  0
  -14.5101  208.8831  113.6387 C   0  0  0  0  0  0  0  0  0  0  0  0
  -14.0809  208.3069  114.8341 C   0  0  0  0  0  0  0  0  0  0  0  0
  -12.7637  208.5374  115.2687 C   0  0  0  0  0  0  0  0  0  0  0  0
  -11.3741  210.5701  112.3301 C   0  0  0  0  0  0  0  0  0  0  0  0
  -15.0257  207.4808  115.6293 C   0  0  0  0  0  0  0  0  0  0  0  0
  -14.7159  206.8428  116.7327 N   0  0  0  0  0  0  0  0  0  0  0  0
  -15.8595  206.2106  117.1287 N   0  0  0  0  0  0  0  0  0  0  0  0
  -16.2049  205.3663  118.1513 C   0  0  0  0  0  0  0  0  0  0  0  0
  -17.4857  205.0468  118.0227 N   0  0  0  0  0  0  0  0  0  0  0  0
  -17.9912  205.6809  116.8969 N   0  0  0  0  0  0  0  0  0  0  0  0
  -16.9947  206.3528  116.4020 C   0  0  0  0  0  0  0  0  0  0  0  0
  -16.7241  207.3643  115.0644 S   0  0  0  0  0  0  0  0  0  0  0  0
  -15.2987  204.8865  119.2132 C   0  0  0  0  0  0  0  0  0  0  0  0
   -9.5252  208.6467  114.9431 C   0  0  0  0  0  0  0  0  0  0  0  0
   -9.5552  207.6161  114.2750 O   0  0  0  0  0  0  0  0  0  0  0  0
  -10.5901  209.5279  115.1057 N   0  0  0  0  0  0  0  0  0  0  0  0
  -10.4435  210.3337  115.6519 H   0  0  0  0  0  0  0  0  0  0  0  0
   -8.2552  209.0861  115.6876 C   0  0  0  0  0  0  0  0  0  0  0  0
   -8.1819  208.4806  116.9730 O   0  0  0  0  0  0  0  0  0  0  0  0
  -11.8694  207.7534  118.8349 C   0  0  0  0  0  0  0  0  0  0  0  0
  -11.2342  206.7002  118.1781 C   0  0  0  0  0  0  0  0  0  0  0  0
   -9.9886  206.8955  117.5524 C   0  0  0  0  0  0  0  0  0  0  0  0
   -9.3673  208.1461  117.5774 C   0  0  0  0  0  0  0  0  0  0  0  0
   -9.9949  209.1893  118.2620 C   0  0  0  0  0  0  0  0  0  0  0  0
  -11.2338  208.9944  118.8838 C   0  0  0  0  0  0  0  0  0  0  0  0
  -13.0855  207.7083  119.4568 O   0  0  0  0  0  0  0  0  0  0  0  0
  -13.8490  208.9077  119.4935 C   0  0  0  0  0  0  0  0  0  0  0  0
 29 23  1  0  0  0
 29 30  1  0  0  0
 23 24  1  0  0  0
 23 28  2  0  0  0
 24 25  2  0  0  0
 25 26  1  0  0  0
 26 27  2  0  0  0
 26 22  1  0  0  0
 27 28  1  0  0  0
 22 21  1  0  0  0
 21 17  1  0  0  0
 17 18  2  0  0  0
 17 19  1  0  0  0
 19  1  1  0  0  0
  1  2  1  0  0  0
  1  6  2  0  0  0
  2  3  2  0  0  0
  2  7  1  0  0  0
  3  4  1  0  0  0
  4  5  2  0  0  0
  5  6  1  0  0  0
  5  8  1  0  0  0
  8  9  2  0  0  0
  8 15  1  0  0  0
  9 10  1  0  0  0
 10 11  1  0  0  0
 10 14  1  0  0  0
 11 12  2  0  0  0
 11 16  1  0  0  0
 12 13  1  0  0  0
 13 14  2  0  0  0
 14 15  1  0  0  0
 19 20  1  0  0  0
M  END
> <minimizedAffinity>
-0.00118

$$$$



 30 33  0  0  0  0  0  0  0  0999 V2000
  -16.0799  209.3119  116.3516 C   0  0  0  0  0  0  0  0  0  0  0  0
  -15.3383  210.0159  115.3875 C   0  0  0  0  0  0  0  0  0  0  0  0
  -14.0513  209.5465  115.0436 C   0  0  0  0  0  0  0  0  0  0  0  0
  -13.4861  208.4350  115.6761 C   0  0  0  0  0  0  0  0  0  0  0  0
  -14.1883  207.7864  116.6917 C   0  0  0  0  0  0  0  0  0  0  0  0
  -15.4796  208.2342  117.0221 C   0  0  0  0  0  0  0  0  0  0  0  0
  -15.8012  211.2853  114.7231 C   0  0  0  0  0  0  0  0  0  0  0  0
  -13.5679  206.6295  117.3874 C   0  0  0  0  0  0  0  0  0  0  0  0
  -14.1076  205.9843  118.3938 N   0  0  0  0  0  0  0  0  0  0  0  0
  -13.2127  205.0100  118.7320 N   0  0  0  0  0  0  0  0  0  0  0  0
  -13.1429  204.0406  119.6980 C   0  0  0  0  0  0  0  0  0  0  0  0
  -12.0029  203.3786  119.5523 N   0  0  0  0  0  0  0  0  0  0  0  0
  -11.3067  203.9223  118.4823 N   0  0  0  0  0  0  0  0  0  0  0  0
  -12.0586  204.8826  118.0330 C   0  0  0  0  0  0  0  0  0  0  0  0
  -11.9780  206.0455  116.7974 S   0  0  0  0  0  0  0  0  0  0  0  0
  -14.1636  203.7830  120.7328 C   0  0  0  0  0  0  0  0  0  0  0  0
  -17.7158  210.4625  117.8221 C   0  0  0  0  0  0  0  0  0  0  0  0
  -16.8957  211.0317  118.5383 O   0  0  0  0  0  0  0  0  0  0  0  0
  -17.4037  209.6326  116.7493 N   0  0  0  0  0  0  0  0  0  0  0  0
  -18.1474  209.2440  116.2345 H   0  0  0  0  0  0  0  0  0  0  0  0
  -19.2273  210.6245  118.0440 C   0  0  0  0  0  0  0  0  0  0  0  0
  -19.7053  209.6893  119.0037 O   0  0  0  0  0  0  0  0  0  0  0  0
  -17.6945  206.0093  119.0900 C   0  0  0  0  0  0  0  0  0  0  0  0
  -17.3561  206.9770  120.0350 C   0  0  0  0  0  0  0  0  0  0  0  0
  -18.0155  208.2204  120.0522 C   0  0  0  0  0  0  0  0  0  0  0  0
  -19.0188  208.5074  119.1241 C   0  0  0  0  0  0  0  0  0  0  0  0
  -19.3733  207.5230  118.1989 C   0  0  0  0  0  0  0  0  0  0  0  0
  -18.7169  206.2867  118.1821 C   0  0  0  0  0  0  0  0  0  0  0  0
  -17.1191  204.7781  118.9453 O   0  0  0  0  0  0  0  0  0  0  0  0
  -17.0967  204.2132  117.6403 C   0  0  0  0  0  0  0  0  0  0  0  0
 29 23  1  0  0  0
 29 30  1  0  0  0
 23 24  1  0  0  0
 23 28  2  0  0  0
 24 25  2  0  0  0
 25 26  1  0  0  0
 26 27  2  0  0  0
 26 22  1  0  0  0
 27 28  1  0  0  0
 22 21  1  0  0  0
 21 17  1  0  0  0
 17 18  2  0  0  0
 17 19  1  0  0  0
 19  1  1  0  0  0
  1  2  1  0  0  0
  1  6  2  0  0  0
  2  3  2  0  0  0
  2  7  1  0  0  0
  3  4  1  0  0  0
  4  5  2  0  0  0
  5  6  1  0  0  0
  5  8  1  0  0  0
  8  9  2  0  0  0
  8 15  1  0  0  0
  9 10  1  0  0  0
 10 11  1  0  0  0
 10 14  1  0  0  0
 11 12  2  0  0  0
 11 16  1  0  0  0
 12 13  1  0  0  0
 13 14  2  0  0  0
 14 15  1  0  0  0
 19 20  1  0  0  0
M  END
> <minimizedAffinity>
-0.00106

$$$$
