
 OpenBabel07192212403D

 22 24  0  0  0  0  0  0  0  0999 V2000
  -13.6268  209.9852  120.6555 O   0  0  0  0  0  0  0  0  0  0  0  0
  -13.6893  208.8400  121.1014 C   0  0  0  0  0  0  0  0  0  0  0  0
  -12.6543  207.9421  121.1537 N   0  0  0  0  0  0  0  0  0  0  0  0
  -12.8186  207.0382  121.5074 H   0  0  0  0  0  0  0  0  0  0  0  0
  -11.3888  208.2775  120.7216 C   0  0  0  0  0  0  0  0  0  0  0  0
  -11.0370  208.0947  119.4462 N   0  0  0  0  0  0  0  0  0  0  0  0
   -9.8320  208.6883  119.3643 N   0  0  0  0  0  0  0  0  0  0  0  0
   -9.3188  209.0505  120.5755 C   0  0  0  0  0  0  0  0  0  0  0  0
  -10.3180  208.8056  121.4859 C   0  0  0  0  0  0  0  0  0  0  0  0
   -9.3654  208.8462  118.5119 H   0  0  0  0  0  0  0  0  0  0  0  0
   -7.9392  209.6354  120.8042 C   0  0  0  0  0  0  0  0  0  0  0  0
   -6.9205  209.5600  119.6882 C   0  0  0  0  0  0  0  0  0  0  0  0
   -6.7502  208.7038  120.8976 C   0  0  0  0  0  0  0  0  0  0  0  0
  -14.9993  208.3273  121.5688 C   0  0  0  0  0  0  0  0  0  0  0  0
  -15.0719  207.0467  122.1274 C   0  0  0  0  0  0  0  0  0  0  0  0
  -16.3138  206.5158  122.4787 C   0  0  0  0  0  0  0  0  0  0  0  0
  -17.4972  207.2403  122.2669 C   0  0  0  0  0  0  0  0  0  0  0  0
  -17.4013  208.5282  121.7167 C   0  0  0  0  0  0  0  0  0  0  0  0
  -16.1611  209.0765  121.3713 C   0  0  0  0  0  0  0  0  0  0  0  0
  -18.8494  206.6376  122.5959 C   0  0  0  0  0  0  0  0  0  0  0  0
  -18.8604  205.4595  123.0743 O   0  0  0  0  0  0  0  0  0  0  0  0
  -19.8770  207.3564  122.3673 O   0  5  0  0  0  0  0  0  0  0  0  0
  1  2  2  0  0  0  0
  2  3  1  0  0  0  0
  2 14  1  0  0  0  0
  3  5  1  0  0  0  0
  3  4  1  0  0  0  0
  5  6  2  0  0  0  0
  5  9  1  0  0  0  0
  6  7  1  0  0  0  0
  7  8  1  0  0  0  0
  7 10  1  0  0  0  0
  8  9  2  0  0  0  0
  8 11  1  0  0  0  0
 11 12  1  0  0  0  0
 11 13  1  0  0  0  0
 12 13  1  0  0  0  0
 14 15  1  0  0  0  0
 14 19  2  0  0  0  0
 15 16  2  0  0  0  0
 16 17  1  0  0  0  0
 17 18  2  0  0  0  0
 17 20  1  0  0  0  0
 18 19  1  0  0  0  0
 20 21  2  0  0  0  0
 20 22  1  0  0  0  0
M  CHG  1  22  -1
M  END
>  <minimizedAffinity>
-0.00009

$$$$
