
 OpenBabel07192212403D

 25 27  0  0  0  0  0  0  0  0999 V2000
  -12.4259  200.5610  118.9276 C   0  0  0  0  0  0  0  0  0  0  0  0
  -11.4129  200.8059  119.5855 O   0  0  0  0  0  0  0  0  0  0  0  0
  -13.6616  201.1350  119.1345 N   0  0  0  0  0  0  0  0  0  0  0  0
  -14.4102  200.9062  118.5375 H   0  0  0  0  0  0  0  0  0  0  0  0
  -13.8615  202.0228  120.1643 C   0  0  0  0  0  0  0  0  0  0  0  0
  -14.0518  201.5760  121.4086 N   0  0  0  0  0  0  0  0  0  0  0  0
  -13.9830  202.6963  122.1543 N   0  0  0  0  0  0  0  0  0  0  0  0
  -13.9205  203.8403  121.4147 C   0  0  0  0  0  0  0  0  0  0  0  0
  -13.8796  203.4363  120.1043 C   0  0  0  0  0  0  0  0  0  0  0  0
  -13.9783  202.6895  123.1387 H   0  0  0  0  0  0  0  0  0  0  0  0
  -13.8397  205.2720  121.8926 C   0  0  0  0  0  0  0  0  0  0  0  0
  -13.9873  205.5380  123.3745 C   0  0  0  0  0  0  0  0  0  0  0  0
  -15.0811  205.9384  122.4446 C   0  0  0  0  0  0  0  0  0  0  0  0
  -12.3428  199.6195  117.7485 C   0  0  0  0  0  0  0  0  0  0  0  0
  -14.7987  200.8263  114.4121 C   0  0  0  0  0  0  0  0  0  0  0  0
  -15.1060  199.6762  115.1260 C   0  0  0  0  0  0  0  0  0  0  0  0
  -14.2848  199.2692  116.1860 C   0  0  0  0  0  0  0  0  0  0  0  0
  -13.1241  199.9846  116.5113 C   0  0  0  0  0  0  0  0  0  0  0  0
  -12.7717  201.0892  115.7291 C   0  0  0  0  0  0  0  0  0  0  0  0
  -13.6041  201.4998  114.6839 C   0  0  0  0  0  0  0  0  0  0  0  0
  -15.5528  201.3809  113.4202 O   0  0  0  0  0  0  0  0  0  0  0  0
  -16.7114  202.5658  115.0497 F   0  0  0  0  0  0  0  0  0  0  0  0
  -16.4395  202.4450  113.7312 C   0  0  0  0  0  0  0  0  0  0  0  0
  -17.5992  202.2850  113.0564 F   0  0  0  0  0  0  0  0  0  0  0  0
  -15.8747  203.6049  113.3261 F   0  0  0  0  0  0  0  0  0  0  0  0
  1  2  2  0  0  0  0
  1  3  1  0  0  0  0
  3  5  1  0  0  0  0
  3  4  1  0  0  0  0
  5  6  2  0  0  0  0
  5  9  1  0  0  0  0
  6  7  1  0  0  0  0
  7  8  1  0  0  0  0
  7 10  1  0  0  0  0
  8  9  2  0  0  0  0
  8 11  1  0  0  0  0
 11 12  1  0  0  0  0
 11 13  1  0  0  0  0
 12 13  1  0  0  0  0
 14  1  1  0  0  0  0
 15 16  1  0  0  0  0
 15 20  2  0  0  0  0
 16 17  2  0  0  0  0
 17 18  1  0  0  0  0
 18 19  2  0  0  0  0
 18 14  1  0  0  0  0
 19 20  1  0  0  0  0
 21 15  1  0  0  0  0
 22 23  1  0  0  0  0
 23 24  1  0  0  0  0
 23 25  1  0  0  0  0
 23 21  1  0  0  0  0
M  END
>  <minimizedAffinity>
-0.00016

$$$$
