
 OpenBabel07192212403D

 16 17  0  0  0  0  0  0  0  0999 V2000
  -14.8258  203.1950  117.2308 C   0  0  0  0  0  0  0  0  0  0  0  0
  -14.0714  204.0797  117.8800 N   0  0  0  0  0  0  0  0  0  0  0  0
  -14.4971  203.9792  119.1482 N   0  0  0  0  0  0  0  0  0  0  0  0
  -15.3260  202.9157  119.3618 C   0  0  0  0  0  0  0  0  0  0  0  0
  -15.6113  202.4154  118.1102 C   0  0  0  0  0  0  0  0  0  0  0  0
  -14.2369  204.6115  119.8566 H   0  0  0  0  0  0  0  0  0  0  0  0
  -13.0344  201.5340  115.7927 O   0  0  0  0  0  0  0  0  0  0  0  0
  -13.8486  202.2717  115.2327 C   0  0  0  0  0  0  0  0  0  0  0  0
  -14.7212  203.1292  115.8631 N   0  0  0  0  0  0  0  0  0  0  0  0
  -15.2904  203.7159  115.3143 H   0  0  0  0  0  0  0  0  0  0  0  0
  -13.9913  202.2749  113.7243 C   0  0  0  0  0  0  0  0  0  0  0  0
  -15.3885  201.8634  113.2734 C   0  0  0  0  0  0  0  0  0  0  0  0
  -15.7333  200.4371  113.6794 C   0  0  0  0  0  0  0  0  0  0  0  0
  -15.7849  202.4546  120.7265 C   0  0  0  0  0  0  0  0  0  0  0  0
  -14.8719  201.5350  121.5116 C   0  0  0  0  0  0  0  0  0  0  0  0
  -16.1590  201.0123  120.9704 C   0  0  0  0  0  0  0  0  0  0  0  0
  1  2  2  0  0  0  0
  1  5  1  0  0  0  0
  2  3  1  0  0  0  0
  3  4  1  0  0  0  0
  3  6  1  0  0  0  0
  4  5  2  0  0  0  0
  4 14  1  0  0  0  0
  7  8  2  0  0  0  0
  8  9  1  0  0  0  0
  8 11  1  0  0  0  0
  9  1  1  0  0  0  0
  9 10  1  0  0  0  0
 11 12  1  0  0  0  0
 12 13  1  0  0  0  0
 14 15  1  0  0  0  0
 14 16  1  0  0  0  0
 15 16  1  0  0  0  0
M  END
>  <minimizedAffinity>
-0.00003

$$$$
