
 OpenBabel07192212403D

 30 33  0  0  0  0  0  0  0  0999 V2000
  -14.1380  209.8025  117.3571 C   0  0  0  0  0  0  0  0  0  0  0  0
  -14.6019  210.7410  116.4195 C   0  0  0  0  0  0  0  0  0  0  0  0
  -15.9283  211.2139  116.5300 C   0  0  0  0  0  0  0  0  0  0  0  0
  -16.7961  210.7314  117.5144 C   0  0  0  0  0  0  0  0  0  0  0  0
  -16.3615  209.7390  118.3928 C   0  0  0  0  0  0  0  0  0  0  0  0
  -15.0350  209.2814  118.3032 C   0  0  0  0  0  0  0  0  0  0  0  0
  -13.7925  211.2466  115.2549 C   0  0  0  0  0  0  0  0  0  0  0  0
  -17.2992  209.2018  119.4124 C   0  0  0  0  0  0  0  0  0  0  0  0
  -17.0194  208.2306  120.2484 N   0  0  0  0  0  0  0  0  0  0  0  0
  -18.1476  208.0484  120.9956 N   0  0  0  0  0  0  0  0  0  0  0  0
  -18.5314  207.1886  121.9913 C   0  0  0  0  0  0  0  0  0  0  0  0
  -19.7797  207.4723  122.3382 N   0  0  0  0  0  0  0  0  0  0  0  0
  -20.2295  208.5269  121.5567 N   0  0  0  0  0  0  0  0  0  0  0  0
  -19.2333  208.8301  120.7789 C   0  0  0  0  0  0  0  0  0  0  0  0
  -18.9252  209.9485  119.5380 S   0  0  0  0  0  0  0  0  0  0  0  0
  -17.6961  206.1199  122.5736 C   0  0  0  0  0  0  0  0  0  0  0  0
  -12.4112  208.1212  116.7623 C   0  0  0  0  0  0  0  0  0  0  0  0
  -13.1316  207.4091  116.0672 O   0  0  0  0  0  0  0  0  0  0  0  0
  -12.8163  209.2882  117.4034 N   0  0  0  0  0  0  0  0  0  0  0  0
  -12.1444  209.7877  117.9212 H   0  0  0  0  0  0  0  0  0  0  0  0
  -10.9303  207.7844  116.9944 C   0  0  0  0  0  0  0  0  0  0  0  0
  -10.7759  206.8908  118.0907 O   0  0  0  0  0  0  0  0  0  0  0  0
  -13.6058  207.2985  121.1596 C   0  0  0  0  0  0  0  0  0  0  0  0
  -13.7858  206.2882  120.2158 C   0  0  0  0  0  0  0  0  0  0  0  0
  -12.8531  206.1057  119.1776 C   0  0  0  0  0  0  0  0  0  0  0  0
  -11.7324  206.9325  119.0736 C   0  0  0  0  0  0  0  0  0  0  0  0
  -11.5426  207.9237  120.0390 C   0  0  0  0  0  0  0  0  0  0  0  0
  -12.4707  208.1049  121.0711 C   0  0  0  0  0  0  0  0  0  0  0  0
  -14.4432  207.6008  122.1966 O   0  0  0  0  0  0  0  0  0  0  0  0
  -14.4845  208.9534  122.6342 C   0  0  0  0  0  0  0  0  0  0  0  0
  1  2  1  0  0  0  0
  1  6  2  0  0  0  0
  2  3  2  0  0  0  0
  2  7  1  0  0  0  0
  3  4  1  0  0  0  0
  4  5  2  0  0  0  0
  5  6  1  0  0  0  0
  5  8  1  0  0  0  0
  8  9  2  0  0  0  0
  8 15  1  0  0  0  0
  9 10  1  0  0  0  0
 10 11  1  0  0  0  0
 10 14  1  0  0  0  0
 11 12  2  0  0  0  0
 11 16  1  0  0  0  0
 12 13  1  0  0  0  0
 13 14  2  0  0  0  0
 14 15  1  0  0  0  0
 17 18  2  0  0  0  0
 17 19  1  0  0  0  0
 19  1  1  0  0  0  0
 19 20  1  0  0  0  0
 21 17  1  0  0  0  0
 22 21  1  0  0  0  0
 23 24  1  0  0  0  0
 23 28  2  0  0  0  0
 24 25  2  0  0  0  0
 25 26  1  0  0  0  0
 26 27  2  0  0  0  0
 26 22  1  0  0  0  0
 27 28  1  0  0  0  0
 29 23  1  0  0  0  0
 29 30  1  0  0  0  0
M  END
>  <minimizedAffinity>
-0.00150

$$$$
