
 OpenBabel07192212403D

 24 26  0  0  0  0  0  0  0  0999 V2000
  -12.6513  201.5165  114.3634 O   0  0  0  0  0  0  0  0  0  0  0  0
  -12.5500  202.1114  113.2968 C   0  0  0  0  0  0  0  0  0  0  0  0
  -11.4871  202.8873  112.8907 N   0  0  0  0  0  0  0  0  0  0  0  0
  -11.5331  203.3380  112.0166 H   0  0  0  0  0  0  0  0  0  0  0  0
  -10.3644  203.0531  113.6654 C   0  0  0  0  0  0  0  0  0  0  0  0
   -9.3802  202.1550  113.5876 N   0  0  0  0  0  0  0  0  0  0  0  0
   -8.4222  202.6695  114.3773 N   0  0  0  0  0  0  0  0  0  0  0  0
   -8.8442  203.7351  115.1185 C   0  0  0  0  0  0  0  0  0  0  0  0
  -10.0950  204.0473  114.6365 C   0  0  0  0  0  0  0  0  0  0  0  0
   -7.5055  202.3125  114.4173 H   0  0  0  0  0  0  0  0  0  0  0  0
   -8.0414  204.3878  116.2257 C   0  0  0  0  0  0  0  0  0  0  0  0
   -8.0806  203.7661  117.6057 C   0  0  0  0  0  0  0  0  0  0  0  0
   -8.7595  205.0698  117.3668 C   0  0  0  0  0  0  0  0  0  0  0  0
  -13.6931  202.0825  112.3455 C   0  0  0  0  0  0  0  0  0  0  0  0
  -13.6271  202.8234  111.1580 C   0  0  0  0  0  0  0  0  0  0  0  0
  -14.7280  202.8673  110.2924 C   0  0  0  0  0  0  0  0  0  0  0  0
  -15.9025  202.1803  110.6228 C   0  0  0  0  0  0  0  0  0  0  0  0
  -15.9545  201.4203  111.7998 C   0  0  0  0  0  0  0  0  0  0  0  0
  -14.8570  201.3729  112.6630 C   0  0  0  0  0  0  0  0  0  0  0  0
  -17.1136  202.2207  109.7638 C   0  0  0  0  0  0  0  0  0  0  0  0
  -17.1179  202.8363  108.7008 O   0  0  0  0  0  0  0  0  0  0  0  0
  -18.2041  201.5074  110.1660 N   0  0  0  0  0  0  0  0  0  0  0  0
  -18.1851  201.0193  111.0207 H   0  0  0  0  0  0  0  0  0  0  0  0
  -19.0103  201.4807  109.6016 H   0  0  0  0  0  0  0  0  0  0  0  0
  1  2  2  0  0  0  0
  2  3  1  0  0  0  0
  2 14  1  0  0  0  0
  3  5  1  0  0  0  0
  3  4  1  0  0  0  0
  5  6  2  0  0  0  0
  5  9  1  0  0  0  0
  6  7  1  0  0  0  0
  7  8  1  0  0  0  0
  7 10  1  0  0  0  0
  8  9  2  0  0  0  0
  8 11  1  0  0  0  0
 11 12  1  0  0  0  0
 11 13  1  0  0  0  0
 12 13  1  0  0  0  0
 14 15  1  0  0  0  0
 14 19  2  0  0  0  0
 15 16  2  0  0  0  0
 16 17  1  0  0  0  0
 17 18  2  0  0  0  0
 17 20  1  0  0  0  0
 18 19  1  0  0  0  0
 20 21  2  0  0  0  0
 20 22  1  0  0  0  0
 22 23  1  0  0  0  0
 22 24  1  0  0  0  0
M  END
>  <minimizedAffinity>
-0.00012

$$$$
