


 25 27  0  0  0  0  0  0  0  0999 V2000
  -12.4259  200.5610  118.9276 C   0  0  0  0  0  0  0  0  0  0  0  0
  -11.4129  200.8059  119.5855 O   0  0  0  0  0  0  0  0  0  0  0  0
  -13.6616  201.1350  119.1345 N   0  0  0  0  0  0  0  0  0  0  0  0
  -14.4102  200.9062  118.5375 H   0  0  0  0  0  0  0  0  0  0  0  0
  -13.8615  202.0228  120.1643 C   0  0  0  0  0  0  0  0  0  0  0  0
  -14.0518  201.5760  121.4086 N   0  0  0  0  0  0  0  0  0  0  0  0
  -13.9830  202.6963  122.1543 N   0  0  0  0  0  0  0  0  0  0  0  0
  -13.9205  203.8403  121.4147 C   0  0  0  0  0  0  0  0  0  0  0  0
  -13.8796  203.4363  120.1043 C   0  0  0  0  0  0  0  0  0  0  0  0
  -13.9783  202.6895  123.1387 H   0  0  0  0  0  0  0  0  0  0  0  0
  -13.8397  205.2720  121.8926 C   0  0  0  0  0  0  0  0  0  0  0  0
  -13.9873  205.5380  123.3745 C   0  0  0  0  0  0  0  0  0  0  0  0
  -15.0811  205.9384  122.4446 C   0  0  0  0  0  0  0  0  0  0  0  0
  -12.3428  199.6195  117.7485 C   0  0  0  0  0  0  0  0  0  0  0  0
  -14.7987  200.8263  114.4121 C   0  0  0  0  0  0  0  0  0  0  0  0
  -15.1060  199.6762  115.1260 C   0  0  0  0  0  0  0  0  0  0  0  0
  -14.2848  199.2692  116.1860 C   0  0  0  0  0  0  0  0  0  0  0  0
  -13.1241  199.9846  116.5113 C   0  0  0  0  0  0  0  0  0  0  0  0
  -12.7717  201.0892  115.7291 C   0  0  0  0  0  0  0  0  0  0  0  0
  -13.6041  201.4998  114.6839 C   0  0  0  0  0  0  0  0  0  0  0  0
  -15.5528  201.3809  113.4202 O   0  0  0  0  0  0  0  0  0  0  0  0
  -16.7114  202.5658  115.0497 F   0  0  0  0  0  0  0  0  0  0  0  0
  -16.4395  202.4450  113.7312 C   0  0  0  0  0  0  0  0  0  0  0  0
  -17.5992  202.2850  113.0564 F   0  0  0  0  0  0  0  0  0  0  0  0
  -15.8747  203.6049  113.3261 F   0  0  0  0  0  0  0  0  0  0  0  0
 22 23  1  0  0  0
 23 24  1  0  0  0
 23 25  1  0  0  0
 23 21  1  0  0  0
 21 15  1  0  0  0
 15 16  1  0  0  0
 15 20  2  0  0  0
 16 17  2  0  0  0
 17 18  1  0  0  0
 18 19  2  0  0  0
 18 14  1  0  0  0
 19 20  1  0  0  0
 14  1  1  0  0  0
  1  2  2  0  0  0
  1  3  1  0  0  0
  3  5  1  0  0  0
  5  6  2  0  0  0
  5  9  1  0  0  0
  6  7  1  0  0  0
  7  8  1  0  0  0
  8  9  2  0  0  0
  8 11  1  0  0  0
 11 12  1  0  0  0
 11 13  1  0  0  0
 12 13  1  0  0  0
  3  4  1  0  0  0
  7 10  1  0  0  0
M  END
> <minimizedAffinity>
-0.00016

$$$$



 25 27  0  0  0  0  0  0  0  0999 V2000
  -13.2804  208.6209  115.4049 C   0  0  0  0  0  0  0  0  0  0  0  0
  -13.9819  209.0188  114.4730 O   0  0  0  0  0  0  0  0  0  0  0  0
  -13.2321  207.3209  115.8598 N   0  0  0  0  0  0  0  0  0  0  0  0
  -12.6153  207.0837  116.5895 H   0  0  0  0  0  0  0  0  0  0  0  0
  -14.0344  206.3518  115.3070 C   0  0  0  0  0  0  0  0  0  0  0  0
  -15.3149  206.2507  115.6737 N   0  0  0  0  0  0  0  0  0  0  0  0
  -15.8232  205.3734  114.7862 N   0  0  0  0  0  0  0  0  0  0  0  0
  -14.8803  204.8002  113.9850 C   0  0  0  0  0  0  0  0  0  0  0  0
  -13.6901  205.3904  114.3278 C   0  0  0  0  0  0  0  0  0  0  0  0
  -16.7835  205.1660  114.7223 H   0  0  0  0  0  0  0  0  0  0  0  0
  -15.0667  203.7779  112.8874 C   0  0  0  0  0  0  0  0  0  0  0  0
  -16.4398  203.1697  112.7058 C   0  0  0  0  0  0  0  0  0  0  0  0
  -15.3350  202.3356  113.2581 C   0  0  0  0  0  0  0  0  0  0  0  0
  -12.3307  209.5776  116.0879 C   0  0  0  0  0  0  0  0  0  0  0  0
   -8.5729  207.7683  117.1945 C   0  0  0  0  0  0  0  0  0  0  0  0
   -9.4656  208.1800  118.1744 C   0  0  0  0  0  0  0  0  0  0  0  0
  -10.6686  208.7996  117.8106 C   0  0  0  0  0  0  0  0  0  0  0  0
  -10.9679  209.0533  116.4649 C   0  0  0  0  0  0  0  0  0  0  0  0
  -10.0228  208.7189  115.4896 C   0  0  0  0  0  0  0  0  0  0  0  0
   -8.8321  208.0858  115.8578 C   0  0  0  0  0  0  0  0  0  0  0  0
   -7.4137  207.0803  117.4024 O   0  0  0  0  0  0  0  0  0  0  0  0
   -8.6361  205.1074  117.2786 F   0  0  0  0  0  0  0  0  0  0  0  0
   -7.4063  205.6680  117.2586 C   0  0  0  0  0  0  0  0  0  0  0  0
   -6.6549  205.1137  118.2353 F   0  0  0  0  0  0  0  0  0  0  0  0
   -6.8407  205.3620  116.0691 F   0  0  0  0  0  0  0  0  0  0  0  0
 22 23  1  0  0  0
 23 24  1  0  0  0
 23 25  1  0  0  0
 23 21  1  0  0  0
 21 15  1  0  0  0
 15 16  1  0  0  0
 15 20  2  0  0  0
 16 17  2  0  0  0
 17 18  1  0  0  0
 18 19  2  0  0  0
 18 14  1  0  0  0
 19 20  1  0  0  0
 14  1  1  0  0  0
  1  2  2  0  0  0
  1  3  1  0  0  0
  3  5  1  0  0  0
  5  6  2  0  0  0
  5  9  1  0  0  0
  6  7  1  0  0  0
  7  8  1  0  0  0
  8  9  2  0  0  0
  8 11  1  0  0  0
 11 12  1  0  0  0
 11 13  1  0  0  0
 12 13  1  0  0  0
  3  4  1  0  0  0
  7 10  1  0  0  0
M  END
> <minimizedAffinity>
-0.00012

$$$$



 25 27  0  0  0  0  0  0  0  0999 V2000
   -9.1629  201.9603  114.9307 C   0  0  0  0  0  0  0  0  0  0  0  0
   -7.9433  202.0839  115.0575 O   0  0  0  0  0  0  0  0  0  0  0  0
  -10.1049  202.4894  115.7863 N   0  0  0  0  0  0  0  0  0  0  0  0
  -11.0621  202.3706  115.5891 H   0  0  0  0  0  0  0  0  0  0  0  0
   -9.7243  203.1807  116.9113 C   0  0  0  0  0  0  0  0  0  0  0  0
   -9.3481  202.5204  118.0098 N   0  0  0  0  0  0  0  0  0  0  0  0
   -8.8440  203.4907  118.7974 N   0  0  0  0  0  0  0  0  0  0  0  0
   -9.0375  204.7476  118.3054 C   0  0  0  0  0  0  0  0  0  0  0  0
   -9.6482  204.5824  117.0880 C   0  0  0  0  0  0  0  0  0  0  0  0
   -8.3804  203.3094  119.6468 H   0  0  0  0  0  0  0  0  0  0  0  0
   -8.6216  206.0718  118.9039 C   0  0  0  0  0  0  0  0  0  0  0  0
   -8.0360  206.0709  120.2986 C   0  0  0  0  0  0  0  0  0  0  0  0
   -9.3992  206.6305  120.0755 C   0  0  0  0  0  0  0  0  0  0  0  0
   -9.7207  201.2428  113.7234 C   0  0  0  0  0  0  0  0  0  0  0  0
  -13.3392  203.0233  112.1887 C   0  0  0  0  0  0  0  0  0  0  0  0
  -13.3733  201.7651  112.7740 C   0  0  0  0  0  0  0  0  0  0  0  0
  -12.1896  201.1761  113.2383 C   0  0  0  0  0  0  0  0  0  0  0  0
  -10.9556  201.8218  113.0800 C   0  0  0  0  0  0  0  0  0  0  0  0
  -10.9176  203.0474  112.4072 C   0  0  0  0  0  0  0  0  0  0  0  0
  -12.1039  203.6373  111.9614 C   0  0  0  0  0  0  0  0  0  0  0  0
  -14.4195  203.7454  111.7743 O   0  0  0  0  0  0  0  0  0  0  0  0
  -14.5771  204.6230  113.9206 F   0  0  0  0  0  0  0  0  0  0  0  0
  -14.9642  204.7380  112.6307 C   0  0  0  0  0  0  0  0  0  0  0  0
  -16.3136  204.7010  112.5720 F   0  0  0  0  0  0  0  0  0  0  0  0
  -14.5581  205.9510  112.1923 F   0  0  0  0  0  0  0  0  0  0  0  0
 22 23  1  0  0  0
 23 24  1  0  0  0
 23 25  1  0  0  0
 23 21  1  0  0  0
 21 15  1  0  0  0
 15 16  1  0  0  0
 15 20  2  0  0  0
 16 17  2  0  0  0
 17 18  1  0  0  0
 18 19  2  0  0  0
 18 14  1  0  0  0
 19 20  1  0  0  0
 14  1  1  0  0  0
  1  2  2  0  0  0
  1  3  1  0  0  0
  3  5  1  0  0  0
  5  6  2  0  0  0
  5  9  1  0  0  0
  6  7  1  0  0  0
  7  8  1  0  0  0
  8  9  2  0  0  0
  8 11  1  0  0  0
 11 12  1  0  0  0
 11 13  1  0  0  0
 12 13  1  0  0  0
  3  4  1  0  0  0
  7 10  1  0  0  0
M  END
> <minimizedAffinity>
-0.00012

$$$$
