


 22 24  0  0  0  0  0  0  0  0999 V2000
  -13.6268  209.9852  120.6555 O   0  0  0  0  0  0  0  0  0  0  0  0
  -13.6893  208.8400  121.1014 C   0  0  0  0  0  0  0  0  0  0  0  0
  -12.6543  207.9421  121.1537 N   0  0  0  0  0  0  0  0  0  0  0  0
  -12.8186  207.0382  121.5074 H   0  0  0  0  0  0  0  0  0  0  0  0
  -11.3888  208.2775  120.7216 C   0  0  0  0  0  0  0  0  0  0  0  0
  -11.0370  208.0947  119.4462 N   0  0  0  0  0  0  0  0  0  0  0  0
   -9.8320  208.6883  119.3643 N   0  0  0  0  0  0  0  0  0  0  0  0
   -9.3188  209.0505  120.5755 C   0  0  0  0  0  0  0  0  0  0  0  0
  -10.3180  208.8056  121.4859 C   0  0  0  0  0  0  0  0  0  0  0  0
   -9.3654  208.8462  118.5119 H   0  0  0  0  0  0  0  0  0  0  0  0
   -7.9392  209.6354  120.8042 C   0  0  0  0  0  0  0  0  0  0  0  0
   -6.9205  209.5600  119.6882 C   0  0  0  0  0  0  0  0  0  0  0  0
   -6.7502  208.7038  120.8976 C   0  0  0  0  0  0  0  0  0  0  0  0
  -14.9993  208.3273  121.5688 C   0  0  0  0  0  0  0  0  0  0  0  0
  -15.0719  207.0467  122.1274 C   0  0  0  0  0  0  0  0  0  0  0  0
  -16.3138  206.5158  122.4787 C   0  0  0  0  0  0  0  0  0  0  0  0
  -17.4972  207.2403  122.2669 C   0  0  0  0  0  0  0  0  0  0  0  0
  -17.4013  208.5282  121.7167 C   0  0  0  0  0  0  0  0  0  0  0  0
  -16.1611  209.0765  121.3713 C   0  0  0  0  0  0  0  0  0  0  0  0
  -18.8494  206.6376  122.5959 C   0  0  0  0  0  0  0  0  0  0  0  0
  -18.8604  205.4595  123.0743 O   0  0  0  0  0  0  0  0  0  0  0  0
  -19.8770  207.3564  122.3673 O   0  0  0  0  0  0  0  0  0  0  0  0
  1  2  2  0  0  0
  2  3  1  0  0  0
  2 14  1  0  0  0
  3  5  1  0  0  0
  5  6  2  0  0  0
  5  9  1  0  0  0
  6  7  1  0  0  0
  7  8  1  0  0  0
  8  9  2  0  0  0
  8 11  1  0  0  0
 11 12  1  0  0  0
 11 13  1  0  0  0
 12 13  1  0  0  0
 14 15  1  0  0  0
 14 19  2  0  0  0
 15 16  2  0  0  0
 16 17  1  0  0  0
 17 18  2  0  0  0
 17 20  1  0  0  0
 18 19  1  0  0  0
 20 21  2  0  0  0
 20 22  1  0  0  0
  3  4  1  0  0  0
  7 10  1  0  0  0
M  CHG 1  22  -1
M  END
> <minimizedAffinity>
-0.00009

$$$$



 22 24  0  0  0  0  0  0  0  0999 V2000
   -9.9324  205.5431  115.1801 O   0  0  0  0  0  0  0  0  0  0  0  0
  -10.9710  205.0300  115.5950 C   0  0  0  0  0  0  0  0  0  0  0  0
  -12.1623  204.9711  114.9187 N   0  0  0  0  0  0  0  0  0  0  0  0
  -12.9433  204.5594  115.3542 H   0  0  0  0  0  0  0  0  0  0  0  0
  -12.2903  205.4759  113.6422 C   0  0  0  0  0  0  0  0  0  0  0  0
  -12.6310  206.7528  113.4489 N   0  0  0  0  0  0  0  0  0  0  0  0
  -12.4818  206.9206  112.1220 N   0  0  0  0  0  0  0  0  0  0  0  0
  -12.2664  205.7554  111.4456 C   0  0  0  0  0  0  0  0  0  0  0  0
  -12.1241  204.7902  112.4127 C   0  0  0  0  0  0  0  0  0  0  0  0
  -12.5242  207.8000  111.6815 H   0  0  0  0  0  0  0  0  0  0  0  0
  -12.1720  205.6204  109.9388 C   0  0  0  0  0  0  0  0  0  0  0  0
  -12.6303  206.7732  109.0728 C   0  0  0  0  0  0  0  0  0  0  0  0
  -13.4453  205.5252  109.1264 C   0  0  0  0  0  0  0  0  0  0  0  0
  -10.9935  204.4778  116.9705 C   0  0  0  0  0  0  0  0  0  0  0  0
  -12.1519  203.8450  117.4339 C   0  0  0  0  0  0  0  0  0  0  0  0
  -12.2189  203.4105  118.7584 C   0  0  0  0  0  0  0  0  0  0  0  0
  -11.1466  203.6114  119.6415 C   0  0  0  0  0  0  0  0  0  0  0  0
   -9.9888  204.2372  119.1533 C   0  0  0  0  0  0  0  0  0  0  0  0
   -9.9045  204.6667  117.8243 C   0  0  0  0  0  0  0  0  0  0  0  0
  -11.2448  203.1903  121.0952 C   0  0  0  0  0  0  0  0  0  0  0  0
  -12.3306  202.6458  121.4710 O   0  0  0  0  0  0  0  0  0  0  0  0
  -10.2311  203.4146  121.8348 O   0  0  0  0  0  0  0  0  0  0  0  0
  1  2  2  0  0  0
  2  3  1  0  0  0
  2 14  1  0  0  0
  3  5  1  0  0  0
  5  6  2  0  0  0
  5  9  1  0  0  0
  6  7  1  0  0  0
  7  8  1  0  0  0
  8  9  2  0  0  0
  8 11  1  0  0  0
 11 12  1  0  0  0
 11 13  1  0  0  0
 12 13  1  0  0  0
 14 15  1  0  0  0
 14 19  2  0  0  0
 15 16  2  0  0  0
 16 17  1  0  0  0
 17 18  2  0  0  0
 17 20  1  0  0  0
 18 19  1  0  0  0
 20 21  2  0  0  0
 20 22  1  0  0  0
  3  4  1  0  0  0
  7 10  1  0  0  0
M  CHG 1  22  -1
M  END
> <minimizedAffinity>
-0.00009

$$$$



 22 24  0  0  0  0  0  0  0  0999 V2000
  -10.9288  201.5019  118.4063 O   0  0  0  0  0  0  0  0  0  0  0  0
  -10.4606  202.5633  118.8166 C   0  0  0  0  0  0  0  0  0  0  0  0
  -10.8739  203.2440  119.9328 N   0  0  0  0  0  0  0  0  0  0  0  0
  -10.4476  204.1021  120.1588 H   0  0  0  0  0  0  0  0  0  0  0  0
  -11.8733  202.7529  120.7456 C   0  0  0  0  0  0  0  0  0  0  0  0
  -13.1527  203.0490  120.5016 N   0  0  0  0  0  0  0  0  0  0  0  0
  -13.8264  202.2676  121.3656 N   0  0  0  0  0  0  0  0  0  0  0  0
  -13.0258  201.6516  122.2827 C   0  0  0  0  0  0  0  0  0  0  0  0
  -11.7386  201.9392  121.8985 C   0  0  0  0  0  0  0  0  0  0  0  0
  -14.8037  202.1515  121.3385 H   0  0  0  0  0  0  0  0  0  0  0  0
  -13.5109  200.8034  123.4416 C   0  0  0  0  0  0  0  0  0  0  0  0
  -14.9749  200.8534  123.8197 C   0  0  0  0  0  0  0  0  0  0  0  0
  -13.9628  201.4850  124.7150 C   0  0  0  0  0  0  0  0  0  0  0  0
   -9.4014  203.2299  118.0220 C   0  0  0  0  0  0  0  0  0  0  0  0
   -8.8224  204.4074  118.5070 C   0  0  0  0  0  0  0  0  0  0  0  0
   -7.8968  205.0963  117.7219 C   0  0  0  0  0  0  0  0  0  0  0  0
   -7.5466  204.6354  116.4432 C   0  0  0  0  0  0  0  0  0  0  0  0
   -8.1297  203.4452  115.9804 C   0  0  0  0  0  0  0  0  0  0  0  0
   -9.0499  202.7389  116.7628 C   0  0  0  0  0  0  0  0  0  0  0  0
   -6.5847  205.4171  115.5694 C   0  0  0  0  0  0  0  0  0  0  0  0
   -6.1097  206.4955  116.0473 O   0  0  0  0  0  0  0  0  0  0  0  0
   -6.3237  204.9363  114.4181 O   0  0  0  0  0  0  0  0  0  0  0  0
  1  2  2  0  0  0
  2  3  1  0  0  0
  2 14  1  0  0  0
  3  5  1  0  0  0
  5  6  2  0  0  0
  5  9  1  0  0  0
  6  7  1  0  0  0
  7  8  1  0  0  0
  8  9  2  0  0  0
  8 11  1  0  0  0
 11 12  1  0  0  0
 11 13  1  0  0  0
 12 13  1  0  0  0
 14 15  1  0  0  0
 14 19  2  0  0  0
 15 16  2  0  0  0
 16 17  1  0  0  0
 17 18  2  0  0  0
 17 20  1  0  0  0
 18 19  1  0  0  0
 20 21  2  0  0  0
 20 22  1  0  0  0
  3  4  1  0  0  0
  7 10  1  0  0  0
M  CHG 1  22  -1
M  END
> <minimizedAffinity>
-0.00004

$$$$
