
 OpenBabel07192212403D

 23 25  0  0  0  0  0  0  0  0999 V2000
  -10.3556  204.1946  115.2216 C   0  0  0  0  0  0  0  0  0  0  0  0
   -9.3040  203.4423  115.5518 N   0  0  0  0  0  0  0  0  0  0  0  0
   -9.6235  202.9582  116.7593 N   0  0  0  0  0  0  0  0  0  0  0  0
  -10.9209  203.1938  117.1178 C   0  0  0  0  0  0  0  0  0  0  0  0
  -11.4137  204.0358  116.1435 C   0  0  0  0  0  0  0  0  0  0  0  0
   -8.9843  202.4781  117.3338 H   0  0  0  0  0  0  0  0  0  0  0  0
  -11.5570  202.6241  118.3507 C   0  0  0  0  0  0  0  0  0  0  0  0
  -11.6014  201.0877  118.2927 C   0  0  0  0  0  0  0  0  0  0  0  0
  -12.3316  200.4888  119.4902 C   0  0  0  0  0  0  0  0  0  0  0  0
  -13.7287  201.0824  119.6469 C   0  0  0  0  0  0  0  0  0  0  0  0
  -13.6702  202.6015  119.7683 C   0  0  0  0  0  0  0  0  0  0  0  0
  -12.9548  203.2267  118.5753 C   0  0  0  0  0  0  0  0  0  0  0  0
   -9.8234  206.2538  114.0830 C   0  0  0  0  0  0  0  0  0  0  0  0
   -9.3360  206.8106  115.0658 O   0  0  0  0  0  0  0  0  0  0  0  0
  -10.3065  204.9634  114.0829 N   0  0  0  0  0  0  0  0  0  0  0  0
  -10.6283  204.5777  113.2362 H   0  0  0  0  0  0  0  0  0  0  0  0
   -9.9640  208.9827  108.5387 Br  0  0  0  0  0  0  0  0  0  0  0  0
   -9.9544  208.1987  110.2558 C   0  0  0  0  0  0  0  0  0  0  0  0
   -9.3105  208.8500  111.3137 C   0  0  0  0  0  0  0  0  0  0  0  0
   -9.2674  208.2559  112.5827 C   0  0  0  0  0  0  0  0  0  0  0  0
   -9.8679  207.0065  112.7923 C   0  0  0  0  0  0  0  0  0  0  0  0
  -10.5334  206.3850  111.7239 C   0  0  0  0  0  0  0  0  0  0  0  0
  -10.5749  206.9745  110.4592 C   0  0  0  0  0  0  0  0  0  0  0  0
  1  2  2  0  0  0  0
  1  5  1  0  0  0  0
  2  3  1  0  0  0  0
  3  4  1  0  0  0  0
  3  6  1  0  0  0  0
  4  5  2  0  0  0  0
  4  7  1  0  0  0  0
  7  8  1  0  0  0  0
  7 12  1  0  0  0  0
  8  9  1  0  0  0  0
  9 10  1  0  0  0  0
 10 11  1  0  0  0  0
 11 12  1  0  0  0  0
 13 14  2  0  0  0  0
 13 15  1  0  0  0  0
 15  1  1  0  0  0  0
 15 16  1  0  0  0  0
 17 18  1  0  0  0  0
 18 19  1  0  0  0  0
 18 23  2  0  0  0  0
 19 20  2  0  0  0  0
 20 21  1  0  0  0  0
 21 22  2  0  0  0  0
 21 13  1  0  0  0  0
 22 23  1  0  0  0  0
M  END
>  <minimizedAffinity>
-0.00002

$$$$
