ZINC14974486
 OpenBabel07192212403D

 38 43  0  0  0  0  0  0  0  0999 V2000
  -10.7084  205.7698  115.8375 C   0  0  0  0  0  0  0  0  0  0  0  0
  -11.9849  205.3073  115.8380 C   0  0  0  0  0  0  0  0  0  0  0  0
  -12.3583  204.2820  114.9695 C   0  0  0  0  0  0  0  0  0  0  0  0
  -11.4030  203.7457  114.1086 C   0  0  0  0  0  0  0  0  0  0  0  0
  -10.0806  204.2584  114.1493 C   0  0  0  0  0  0  0  0  0  0  0  0
   -9.2253  203.8029  113.4099 O   0  0  0  0  0  0  0  0  0  0  0  0
   -9.7748  205.2534  115.0035 N   0  0  0  0  0  0  0  0  0  0  0  0
   -8.8155  205.6278  115.0228 H   0  0  0  0  0  0  0  0  0  0  0  0
  -11.7576  202.6630  113.1782 C   0  0  0  0  0  0  0  0  0  0  0  0
  -12.5528  201.8067  113.5163 O   0  0  0  0  0  0  0  0  0  0  0  0
  -11.2016  202.6197  111.9513 N   0  0  0  0  0  0  0  0  0  0  0  0
  -10.5861  203.3836  111.6375 H   0  0  0  0  0  0  0  0  0  0  0  0
  -11.4728  201.4861  111.0637 C   0  0  0  0  0  0  0  0  0  0  0  0
  -11.8986  201.9815  109.7035 C   0  0  0  0  0  0  0  0  0  0  0  0
  -12.9650  202.7519  109.2910 C   0  0  0  0  0  0  0  0  0  0  0  0
  -13.1148  203.0674  107.9520 C   0  0  0  0  0  0  0  0  0  0  0  0
  -12.2009  202.6027  107.0236 C   0  0  0  0  0  0  0  0  0  0  0  0
  -11.1307  201.8317  107.4274 C   0  0  0  0  0  0  0  0  0  0  0  0
  -10.9705  201.5135  108.7772 C   0  0  0  0  0  0  0  0  0  0  0  0
   -9.9323  200.7171  109.4772 C   0  0  0  0  0  0  0  0  0  0  0  0
  -10.2119  200.6876  110.8408 C   0  0  0  0  0  0  0  0  0  0  0  0
   -9.3837  200.0045  111.7059 C   0  0  0  0  0  0  0  0  0  0  0  0
   -8.2686  199.3441  111.2208 C   0  0  0  0  0  0  0  0  0  0  0  0
   -7.9825  199.3677  109.8677 C   0  0  0  0  0  0  0  0  0  0  0  0
   -8.8059  200.0483  108.9950 C   0  0  0  0  0  0  0  0  0  0  0  0
  -10.3233  206.8784  116.7829 C   0  0  0  0  0  0  0  0  0  0  0  0
  -11.1451  208.2282  119.6471 C   0  0  0  0  0  0  0  0  0  0  0  0
  -10.3667  207.0878  120.3100 C   0  0  0  0  0  0  0  0  0  0  0  0
  -10.5326  205.7913  119.5385 C   0  0  0  0  0  0  0  0  0  0  0  0
   -9.3927  205.4473  118.5862 C   0  0  2  0  0  0  0  0  0  0  0  0
   -8.0809  205.5070  119.4245 C   0  0  0  0  0  0  0  0  0  0  0  0
   -7.9282  207.0499  119.5437 C   0  0  2  0  0  0  0  0  0  0  0  0
   -8.9364  207.5097  120.5964 C   0  0  0  0  0  0  0  0  0  0  0  0
   -8.3834  207.5583  118.1541 C   0  0  0  0  0  0  0  0  0  0  0  0
   -6.4891  207.4704  119.8749 C   0  0  0  0  0  0  0  0  0  0  0  0
  -11.0414  206.8632  121.6926 C   0  0  0  0  0  0  0  0  0  0  0  0
   -9.0914  206.4375  117.5311 N   0  3  2  0  0  0  0  0  0  0  0  0
   -8.4915  206.0050  116.8141 H   0  0  0  0  0  0  0  0  0  0  0  0
  1  7  1  0  0  0  0
  1  2  2  0  0  0  0
  2  3  1  0  0  0  0
  3  4  2  0  0  0  0
  4  5  1  0  0  0  0
  4  9  1  0  0  0  0
  5  6  2  0  0  0  0
  5  7  1  0  0  0  0
  7  8  1  0  0  0  0
  9 10  2  0  0  0  0
  9 11  1  0  0  0  0
 11 13  1  0  0  0  0
 11 12  1  0  0  0  0
 13 21  1  0  0  0  0
 13 14  1  0  0  0  0
 14 19  2  0  0  0  0
 14 15  1  0  0  0  0
 15 16  2  0  0  0  0
 16 17  1  0  0  0  0
 17 18  2  0  0  0  0
 18 19  1  0  0  0  0
 19 20  1  0  0  0  0
 20 25  2  0  0  0  0
 20 21  1  0  0  0  0
 21 22  2  0  0  0  0
 22 23  1  0  0  0  0
 23 24  2  0  0  0  0
 24 25  1  0  0  0  0
 26  1  1  0  0  0  0
 26 37  1  0  0  0  0
 27 28  1  0  0  0  0
 28 33  1  0  0  0  0
 28 29  1  0  0  0  0
 28 36  1  0  0  0  0
 30 29  1  1  0  0  0
 30 31  1  0  0  0  0
 30 37  1  0  0  0  0
 31 32  1  0  0  0  0
 32 33  1  0  0  0  0
 32 34  1  0  0  0  0
 32 35  1  1  0  0  0
 34 37  1  0  0  0  0
 37 38  1  6  0  0  0
M  CHG  1  37   1
M  END
>  <minimizedAffinity>
-0.00008

$$$$
