BDB6866
 OpenBabel07192212403D

 32 34  0  0  0  0  0  0  0  0999 V2000
  -12.8186  207.4320  114.7128 C   0  0  0  0  0  0  0  0  0  0  0  0
  -14.2443  208.5656  115.7767 C   0  0  0  0  0  0  0  0  0  0  0  0
  -12.9675  208.0829  115.8379 N   0  0  0  0  0  0  0  0  0  0  0  0
  -11.7320  206.7722  114.2815 N   0  0  0  0  0  0  0  0  0  0  0  0
  -13.9894  207.5113  113.9815 N   0  0  0  0  0  0  0  0  0  0  0  0
  -14.9016  208.2560  114.6521 N   0  0  0  0  0  0  0  0  0  0  0  0
  -14.2887  206.9619  112.7292 C   0  0  0  0  0  0  0  0  0  0  0  0
  -13.3964  206.3587  112.1358 O   0  0  0  0  0  0  0  0  0  0  0  0
  -10.8853  206.7223  114.8355 H   0  0  0  0  0  0  0  0  0  0  0  0
  -11.7234  206.2996  113.3757 H   0  0  0  0  0  0  0  0  0  0  0  0
  -15.6084  207.0709  112.0996 C   0  0  0  0  0  0  0  0  0  0  0  0
  -16.6011  206.1471  112.4037 C   0  0  0  0  0  0  0  0  0  0  0  0
  -17.8620  206.2489  111.8208 C   0  0  0  0  0  0  0  0  0  0  0  0
  -18.1304  207.2895  110.9291 C   0  0  0  0  0  0  0  0  0  0  0  0
  -17.1383  208.2235  110.6267 C   0  0  0  0  0  0  0  0  0  0  0  0
  -15.8821  208.1107  111.2171 C   0  0  0  0  0  0  0  0  0  0  0  0
  -16.3550  205.1325  113.2452 F   0  0  0  0  0  0  0  0  0  0  0  0
  -14.9481  209.0324  110.9412 F   0  0  0  0  0  0  0  0  0  0  0  0
  -14.7693  209.3091  116.7747 N   0  0  0  0  0  0  0  0  0  0  0  0
  -14.4454  210.2686  116.7860 H   0  0  0  0  0  0  0  0  0  0  0  0
  -15.6856  209.0196  117.8094 C   0  0  0  0  0  0  0  0  0  0  0  0
  -16.1329  207.6934  117.9600 C   0  0  0  0  0  0  0  0  0  0  0  0
  -17.0571  207.3388  118.9504 C   0  0  0  0  0  0  0  0  0  0  0  0
  -17.5570  208.3192  119.8043 C   0  0  0  0  0  0  0  0  0  0  0  0
  -17.1226  209.6388  119.6898 C   0  0  0  0  0  0  0  0  0  0  0  0
  -16.1994  209.9803  118.6927 C   0  0  0  0  0  0  0  0  0  0  0  0
  -18.5743  209.2011  122.1172 N   0  0  0  0  0  0  0  0  0  0  0  0
  -20.0510  207.9316  120.5190 O   0  0  0  0  0  0  0  0  0  0  0  0
  -18.7144  207.8856  121.0706 S   0  0  0  0  0  0  0  0  0  0  0  0
  -18.2197  206.7258  121.7780 O   0  0  0  0  0  0  0  0  0  0  0  0
  -18.1919  208.9365  123.0272 H   0  0  0  0  0  0  0  0  0  0  0  0
  -19.4328  209.7531  122.1648 H   0  0  0  0  0  0  0  0  0  0  0  0
  1  3  2  0  0  0  0
  1  4  1  0  0  0  0
  1  5  1  0  0  0  0
  2  3  1  0  0  0  0
  2  6  2  0  0  0  0
  2 19  1  0  0  0  0
  4  9  1  0  0  0  0
  4 10  1  0  0  0  0
  5  6  1  0  0  0  0
  5  7  1  0  0  0  0
  7  8  2  0  0  0  0
  7 11  1  0  0  0  0
 11 12  1  0  0  0  0
 11 16  2  0  0  0  0
 12 13  2  0  0  0  0
 12 17  1  0  0  0  0
 13 14  1  0  0  0  0
 14 15  2  0  0  0  0
 15 16  1  0  0  0  0
 16 18  1  0  0  0  0
 19 21  1  0  0  0  0
 19 20  1  0  0  0  0
 21 22  1  0  0  0  0
 21 26  2  0  0  0  0
 22 23  2  0  0  0  0
 23 24  1  0  0  0  0
 24 25  2  0  0  0  0
 24 29  1  0  0  0  0
 25 26  1  0  0  0  0
 27 29  1  0  0  0  0
 27 31  1  0  0  0  0
 27 32  1  0  0  0  0
 28 29  2  0  0  0  0
 29 30  2  0  0  0  0
M  END
>  <minimizedAffinity>
-0.00004

$$$$
