BDB50245912
 OpenBabel07192212403D

 36 40  0  0  0  0  0  0  0  0999 V2000
  -13.9249  207.8912  117.4651 C   0  0  0  0  0  0  0  0  0  0  0  0
  -12.7207  207.3447  116.9971 C   0  0  0  0  0  0  0  0  0  0  0  0
  -11.7534  208.1422  116.3782 C   0  0  0  0  0  0  0  0  0  0  0  0
  -12.0014  209.5026  116.1999 C   0  0  0  0  0  0  0  0  0  0  0  0
  -13.1704  210.0836  116.6849 C   0  0  0  0  0  0  0  0  0  0  0  0
  -14.1226  209.2762  117.3149 C   0  0  0  0  0  0  0  0  0  0  0  0
  -11.0668  210.3130  115.3974 C   0  0  0  0  0  0  0  0  0  0  0  0
  -10.1613  210.9170  115.9582 O   0  0  0  0  0  0  0  0  0  0  0  0
  -11.3067  210.3442  114.0336 N   0  0  0  0  0  0  0  0  0  0  0  0
  -12.3822  209.6536  113.3294 C   0  0  0  0  0  0  0  0  0  0  0  0
  -12.0096  209.8063  111.8592 C   0  0  2  0  0  0  0  0  0  0  0  0
  -11.2719  211.1417  111.8143 C   0  0  0  0  0  0  0  0  0  0  0  0
  -10.4752  211.1119  113.1182 C   0  0  0  0  0  0  0  0  0  0  0  0
  -13.1628  209.7178  110.9276 N   0  3  0  0  0  0  0  0  0  0  0  0
  -13.0164  208.9075  110.3066 H   0  0  0  0  0  0  0  0  0  0  0  0
  -13.1394  210.5352  110.3016 H   0  0  0  0  0  0  0  0  0  0  0  0
  -14.5282  209.6308  111.4934 C   0  0  0  0  0  0  0  0  0  0  0  0
  -15.3057  208.3689  111.2514 C   0  0  0  0  0  0  0  0  0  0  0  0
  -15.6530  209.6188  110.4961 C   0  0  0  0  0  0  0  0  0  0  0  0
  -14.9611  207.1202  118.0060 N   0  0  0  0  0  0  0  0  0  0  0  0
  -14.7582  206.5865  118.8400 H   0  0  0  0  0  0  0  0  0  0  0  0
  -17.1404  206.6348  118.6306 N   0  0  0  0  0  0  0  0  0  0  0  0
  -16.2885  206.9086  117.6239 C   0  0  0  0  0  0  0  0  0  0  0  0
  -16.6713  207.0110  116.3391 N   0  0  0  0  0  0  0  0  0  0  0  0
  -17.9735  206.8051  116.0668 C   0  0  0  0  0  0  0  0  0  0  0  0
  -18.9093  206.4912  117.0253 C   0  0  0  0  0  0  0  0  0  0  0  0
  -18.4307  206.4234  118.3084 C   0  0  0  0  0  0  0  0  0  0  0  0
  -18.3118  206.8851  114.6541 C   0  0  0  0  0  0  0  0  0  0  0  0
  -18.4670  205.8528  113.7533 C   0  0  0  0  0  0  0  0  0  0  0  0
  -18.8215  206.3136  112.5205 N   0  0  0  0  0  0  0  0  0  0  0  0
  -18.8636  207.6268  112.6234 C   0  0  0  0  0  0  0  0  0  0  0  0
  -18.5103  208.0344  113.8999 N   0  0  0  0  0  0  0  0  0  0  0  0
  -19.2189  208.5200  111.4908 C   0  0  0  0  0  0  0  0  0  0  0  0
  -18.3494  209.4024  114.3945 C   0  0  0  0  0  0  0  0  0  0  0  0
  -19.2332  209.7318  115.6003 C   0  0  0  0  0  0  0  0  0  0  0  0
  -16.8868  209.7654  114.6463 C   0  0  0  0  0  0  0  0  0  0  0  0
  1  2  1  0  0  0  0
  1  6  2  0  0  0  0
  2  3  2  0  0  0  0
  3  4  1  0  0  0  0
  4  5  2  0  0  0  0
  4  7  1  0  0  0  0
  5  6  1  0  0  0  0
  7  8  2  0  0  0  0
  7  9  1  0  0  0  0
  9 10  1  0  0  0  0
  9 13  1  0  0  0  0
 10 11  1  0  0  0  0
 11 12  1  0  0  0  0
 11 14  1  6  0  0  0
 12 13  1  0  0  0  0
 14 17  1  0  0  0  0
 14 15  1  0  0  0  0
 14 16  1  0  0  0  0
 17 18  1  0  0  0  0
 17 19  1  0  0  0  0
 18 19  1  0  0  0  0
 20  1  1  0  0  0  0
 20 21  1  0  0  0  0
 22 23  1  0  0  0  0
 22 27  2  0  0  0  0
 23 24  2  0  0  0  0
 23 20  1  0  0  0  0
 24 25  1  0  0  0  0
 25 26  2  0  0  0  0
 25 28  1  0  0  0  0
 26 27  1  0  0  0  0
 28 29  2  0  0  0  0
 28 32  1  0  0  0  0
 29 30  1  0  0  0  0
 30 31  2  0  0  0  0
 31 32  1  0  0  0  0
 31 33  1  0  0  0  0
 32 34  1  0  0  0  0
 34 35  1  0  0  0  0
 34 36  1  0  0  0  0
M  CHG  1  14   1
M  END
>  <minimizedAffinity>
-0.00140

$$$$
