BDB6866


 32 34  0  0  0  0  0  0  0  0999 V2000
  -12.8186  207.4320  114.7128 C   0  0  0  0  0  0  0  0  0  0  0  0
  -14.2443  208.5656  115.7767 C   0  0  0  0  0  0  0  0  0  0  0  0
  -12.9675  208.0829  115.8379 N   0  0  0  0  0  0  0  0  0  0  0  0
  -11.7320  206.7722  114.2815 N   0  0  0  0  0  0  0  0  0  0  0  0
  -13.9894  207.5113  113.9815 N   0  0  0  0  0  0  0  0  0  0  0  0
  -14.9016  208.2560  114.6521 N   0  0  0  0  0  0  0  0  0  0  0  0
  -14.2887  206.9619  112.7292 C   0  0  0  0  0  0  0  0  0  0  0  0
  -13.3964  206.3587  112.1358 O   0  0  0  0  0  0  0  0  0  0  0  0
  -10.8853  206.7223  114.8355 H   0  0  0  0  0  0  0  0  0  0  0  0
  -11.7234  206.2996  113.3757 H   0  0  0  0  0  0  0  0  0  0  0  0
  -15.6084  207.0709  112.0996 C   0  0  0  0  0  0  0  0  0  0  0  0
  -16.6011  206.1471  112.4037 C   0  0  0  0  0  0  0  0  0  0  0  0
  -17.8620  206.2489  111.8208 C   0  0  0  0  0  0  0  0  0  0  0  0
  -18.1304  207.2895  110.9291 C   0  0  0  0  0  0  0  0  0  0  0  0
  -17.1383  208.2235  110.6267 C   0  0  0  0  0  0  0  0  0  0  0  0
  -15.8821  208.1107  111.2171 C   0  0  0  0  0  0  0  0  0  0  0  0
  -16.3550  205.1325  113.2452 F   0  0  0  0  0  0  0  0  0  0  0  0
  -14.9481  209.0324  110.9412 F   0  0  0  0  0  0  0  0  0  0  0  0
  -14.7693  209.3091  116.7747 N   0  0  0  0  0  0  0  0  0  0  0  0
  -14.4454  210.2686  116.7860 H   0  0  0  0  0  0  0  0  0  0  0  0
  -15.6856  209.0196  117.8094 C   0  0  0  0  0  0  0  0  0  0  0  0
  -16.1329  207.6934  117.9600 C   0  0  0  0  0  0  0  0  0  0  0  0
  -17.0571  207.3388  118.9504 C   0  0  0  0  0  0  0  0  0  0  0  0
  -17.5570  208.3192  119.8043 C   0  0  0  0  0  0  0  0  0  0  0  0
  -17.1226  209.6388  119.6898 C   0  0  0  0  0  0  0  0  0  0  0  0
  -16.1994  209.9803  118.6927 C   0  0  0  0  0  0  0  0  0  0  0  0
  -18.5743  209.2011  122.1172 N   0  0  0  0  0  0  0  0  0  0  0  0
  -20.0510  207.9316  120.5190 O   0  0  0  0  0  0  0  0  0  0  0  0
  -18.7144  207.8856  121.0706 S   0  0  0  0  0  0  0  0  0  0  0  0
  -18.2197  206.7258  121.7780 O   0  0  0  0  0  0  0  0  0  0  0  0
  -18.1919  208.9365  123.0272 H   0  0  0  0  0  0  0  0  0  0  0  0
  -19.4328  209.7531  122.1648 H   0  0  0  0  0  0  0  0  0  0  0  0
  1  3  2  0  0  0
  1  4  1  0  0  0
  1  5  1  0  0  0
  2  3  1  0  0  0
  2  6  2  0  0  0
  2 19  1  0  0  0
  4  9  1  0  0  0
  4 10  1  0  0  0
  5  6  1  0  0  0
  5  7  1  0  0  0
  7  8  2  0  0  0
  7 11  1  0  0  0
 11 12  1  0  0  0
 11 16  2  0  0  0
 12 13  2  0  0  0
 12 17  1  0  0  0
 13 14  1  0  0  0
 14 15  2  0  0  0
 15 16  1  0  0  0
 16 18  1  0  0  0
 19 21  1  0  0  0
 19 20  1  0  0  0
 21 22  1  0  0  0
 21 26  2  0  0  0
 22 23  2  0  0  0
 23 24  1  0  0  0
 24 25  2  0  0  0
 24 29  1  0  0  0
 25 26  1  0  0  0
 27 29  1  0  0  0
 27 31  1  0  0  0
 27 32  1  0  0  0
 28 29  2  0  0  0
 29 30  2  0  0  0
M  END
> <minimizedAffinity>
-0.00004

$$$$
BDB6866


 32 34  0  0  0  0  0  0  0  0999 V2000
  -18.8704  205.3886  111.7267 C   0  0  0  0  0  0  0  0  0  0  0  0
  -17.9544  205.8468  113.5708 C   0  0  0  0  0  0  0  0  0  0  0  0
  -19.0520  205.2520  113.0151 N   0  0  0  0  0  0  0  0  0  0  0  0
  -19.6697  204.9672  110.7339 N   0  0  0  0  0  0  0  0  0  0  0  0
  -17.6843  206.0627  111.5020 N   0  0  0  0  0  0  0  0  0  0  0  0
  -17.0820  206.3413  112.6835 N   0  0  0  0  0  0  0  0  0  0  0  0
  -17.0954  206.4357  110.2880 C   0  0  0  0  0  0  0  0  0  0  0  0
  -17.6514  206.0904  109.2470 O   0  0  0  0  0  0  0  0  0  0  0  0
  -20.5375  204.4790  110.9206 H   0  0  0  0  0  0  0  0  0  0  0  0
  -19.4258  205.1238  109.7541 H   0  0  0  0  0  0  0  0  0  0  0  0
  -15.8564  207.2152  110.2030 C   0  0  0  0  0  0  0  0  0  0  0  0
  -15.9043  208.6031  110.2571 C   0  0  0  0  0  0  0  0  0  0  0  0
  -14.7322  209.3525  110.1899 C   0  0  0  0  0  0  0  0  0  0  0  0
  -13.5014  208.7035  110.0723 C   0  0  0  0  0  0  0  0  0  0  0  0
  -13.4485  207.3096  110.0249 C   0  0  0  0  0  0  0  0  0  0  0  0
  -14.6278  206.5721  110.0939 C   0  0  0  0  0  0  0  0  0  0  0  0
  -17.0790  209.2425  110.3535 F   0  0  0  0  0  0  0  0  0  0  0  0
  -14.5600  205.2330  110.0782 F   0  0  0  0  0  0  0  0  0  0  0  0
  -17.7786  205.9000  114.9089 N   0  0  0  0  0  0  0  0  0  0  0  0
  -17.4704  205.0262  115.3176 H   0  0  0  0  0  0  0  0  0  0  0  0
  -17.9350  206.9332  115.8587 C   0  0  0  0  0  0  0  0  0  0  0  0
  -18.4585  208.1676  115.4295 C   0  0  0  0  0  0  0  0  0  0  0  0
  -18.6207  209.2424  116.3122 C   0  0  0  0  0  0  0  0  0  0  0  0
  -18.2481  209.0962  117.6464 C   0  0  0  0  0  0  0  0  0  0  0  0
  -17.7402  207.8817  118.1051 C   0  0  0  0  0  0  0  0  0  0  0  0
  -17.5808  206.8152  117.2106 C   0  0  0  0  0  0  0  0  0  0  0  0
  -18.4694  209.6318  120.2592 N   0  0  0  0  0  0  0  0  0  0  0  0
  -17.2692  211.2609  118.7585 O   0  0  0  0  0  0  0  0  0  0  0  0
  -18.4600  210.4396  118.7784 S   0  0  0  0  0  0  0  0  0  0  0  0
  -19.7789  211.0023  118.5934 O   0  0  0  0  0  0  0  0  0  0  0  0
  -19.3707  209.7016  120.7359 H   0  0  0  0  0  0  0  0  0  0  0  0
  -17.6649  209.8755  120.8400 H   0  0  0  0  0  0  0  0  0  0  0  0
  1  3  2  0  0  0
  1  4  1  0  0  0
  1  5  1  0  0  0
  2  3  1  0  0  0
  2  6  2  0  0  0
  2 19  1  0  0  0
  4  9  1  0  0  0
  4 10  1  0  0  0
  5  6  1  0  0  0
  5  7  1  0  0  0
  7  8  2  0  0  0
  7 11  1  0  0  0
 11 12  1  0  0  0
 11 16  2  0  0  0
 12 13  2  0  0  0
 12 17  1  0  0  0
 13 14  1  0  0  0
 14 15  2  0  0  0
 15 16  1  0  0  0
 16 18  1  0  0  0
 19 21  1  0  0  0
 19 20  1  0  0  0
 21 22  1  0  0  0
 21 26  2  0  0  0
 22 23  2  0  0  0
 23 24  1  0  0  0
 24 25  2  0  0  0
 24 29  1  0  0  0
 25 26  1  0  0  0
 27 29  1  0  0  0
 27 31  1  0  0  0
 27 32  1  0  0  0
 28 29  2  0  0  0
 29 30  2  0  0  0
M  END
> <minimizedAffinity>
-0.00002

$$$$
BDB6866


 32 34  0  0  0  0  0  0  0  0999 V2000
   -9.4805  205.6135  117.7309 C   0  0  0  0  0  0  0  0  0  0  0  0
  -10.4746  204.0912  116.6614 C   0  0  0  0  0  0  0  0  0  0  0  0
   -9.2437  204.6377  116.8922 N   0  0  0  0  0  0  0  0  0  0  0  0
   -8.5956  206.4635  118.2754 N   0  0  0  0  0  0  0  0  0  0  0  0
  -10.8357  205.6645  118.0005 N   0  0  0  0  0  0  0  0  0  0  0  0
  -11.4759  204.6753  117.3313 N   0  0  0  0  0  0  0  0  0  0  0  0
  -11.5397  206.5455  118.8300 C   0  0  0  0  0  0  0  0  0  0  0  0
  -10.8954  207.3753  119.4691 O   0  0  0  0  0  0  0  0  0  0  0  0
   -7.6069  206.4118  118.0606 H   0  0  0  0  0  0  0  0  0  0  0  0
   -8.8920  207.1910  118.9288 H   0  0  0  0  0  0  0  0  0  0  0  0
  -12.9993  206.5245  118.9680 C   0  0  0  0  0  0  0  0  0  0  0  0
  -13.7922  207.2224  118.0649 C   0  0  0  0  0  0  0  0  0  0  0  0
  -15.1801  207.1988  118.1794 C   0  0  0  0  0  0  0  0  0  0  0  0
  -15.7775  206.4646  119.2062 C   0  0  0  0  0  0  0  0  0  0  0  0
  -14.9849  205.7564  120.1108 C   0  0  0  0  0  0  0  0  0  0  0  0
  -13.5984  205.7878  119.9845 C   0  0  0  0  0  0  0  0  0  0  0  0
  -13.2342  207.9456  117.0832 F   0  0  0  0  0  0  0  0  0  0  0  0
  -12.8504  205.0782  120.8419 F   0  0  0  0  0  0  0  0  0  0  0  0
  -10.6372  203.0349  115.8354 N   0  0  0  0  0  0  0  0  0  0  0  0
  -10.3582  202.1498  116.2408 H   0  0  0  0  0  0  0  0  0  0  0  0
  -11.1229  202.9129  114.5150 C   0  0  0  0  0  0  0  0  0  0  0  0
  -11.4460  204.0856  113.8063 C   0  0  0  0  0  0  0  0  0  0  0  0
  -11.9525  204.0383  112.5018 C   0  0  0  0  0  0  0  0  0  0  0  0
  -12.1528  202.8039  111.8883 C   0  0  0  0  0  0  0  0  0  0  0  0
  -11.8289  201.6253  112.5586 C   0  0  0  0  0  0  0  0  0  0  0  0
  -11.3252  201.6869  113.8646 C   0  0  0  0  0  0  0  0  0  0  0  0
  -12.3212  201.1691  109.7760 N   0  0  0  0  0  0  0  0  0  0  0  0
  -14.2242  202.7410  110.2801 O   0  0  0  0  0  0  0  0  0  0  0  0
  -12.7783  202.7266  110.2349 S   0  0  0  0  0  0  0  0  0  0  0  0
  -12.0310  203.6489  109.4095 O   0  0  0  0  0  0  0  0  0  0  0  0
  -11.6357  201.1712  109.0180 H   0  0  0  0  0  0  0  0  0  0  0  0
  -13.1252  200.5593  109.6161 H   0  0  0  0  0  0  0  0  0  0  0  0
  1  3  2  0  0  0
  1  4  1  0  0  0
  1  5  1  0  0  0
  2  3  1  0  0  0
  2  6  2  0  0  0
  2 19  1  0  0  0
  4  9  1  0  0  0
  4 10  1  0  0  0
  5  6  1  0  0  0
  5  7  1  0  0  0
  7  8  2  0  0  0
  7 11  1  0  0  0
 11 12  1  0  0  0
 11 16  2  0  0  0
 12 13  2  0  0  0
 12 17  1  0  0  0
 13 14  1  0  0  0
 14 15  2  0  0  0
 15 16  1  0  0  0
 16 18  1  0  0  0
 19 21  1  0  0  0
 19 20  1  0  0  0
 21 22  1  0  0  0
 21 26  2  0  0  0
 22 23  2  0  0  0
 23 24  1  0  0  0
 24 25  2  0  0  0
 24 29  1  0  0  0
 25 26  1  0  0  0
 27 29  1  0  0  0
 27 31  1  0  0  0
 27 32  1  0  0  0
 28 29  2  0  0  0
 29 30  2  0  0  0
M  END
> <minimizedAffinity>
-0.00001

$$$$
