ZINC16052720
 OpenBabel07192212403D

 38 45  0  0  0  0  0  0  0  0999 V2000
  -12.3167  202.8478  113.5926 C   0  0  0  0  0  0  0  0  0  0  0  0
  -12.3917  204.0730  114.5059 C   0  0  1  0  0  0  0  0  0  0  0  0
  -11.9162  203.6349  115.8863 C   0  0  1  0  0  0  0  0  0  0  0  0
  -11.6904  204.8722  116.7623 C   0  0  2  0  0  0  0  0  0  0  0  0
  -10.6269  205.7475  116.0899 C   0  0  0  0  0  0  0  0  0  0  0  0
  -11.1147  206.1646  114.7073 C   0  0  1  0  0  0  0  0  0  0  0  0
  -11.5618  205.0649  113.9431 O   0  0  0  0  0  0  0  0  0  0  0  0
  -12.1315  207.2090  114.8151 N   0  0  0  0  0  0  0  0  0  0  0  0
  -11.9413  208.5541  114.9363 C   0  0  0  0  0  0  0  0  0  0  0  0
  -13.1400  209.1761  115.0111 C   0  0  0  0  0  0  0  0  0  0  0  0
  -14.1512  208.1954  114.9327 C   0  0  0  0  0  0  0  0  0  0  0  0
  -13.4921  206.9704  114.8034 C   0  0  0  0  0  0  0  0  0  0  0  0
  -14.2188  205.7837  114.6878 C   0  0  0  0  0  0  0  0  0  0  0  0
  -13.7967  204.4785  114.5520 N   0  0  0  0  0  0  0  0  0  0  0  0
  -14.8930  203.6649  114.4660 C   0  0  0  0  0  0  0  0  0  0  0  0
  -16.0190  204.4018  114.5484 C   0  0  0  0  0  0  0  0  0  0  0  0
  -15.6213  205.7995  114.7008 C   0  0  0  0  0  0  0  0  0  0  0  0
  -16.3051  207.0076  114.8419 C   0  0  0  0  0  0  0  0  0  0  0  0
  -15.6129  208.2081  114.9601 C   0  0  0  0  0  0  0  0  0  0  0  0
  -16.5891  209.2972  115.0963 C   0  0  0  0  0  0  0  0  0  0  0  0
  -16.3039  210.4733  115.2187 O   0  0  0  0  0  0  0  0  0  0  0  0
  -17.8417  208.8114  115.0663 N   0  0  0  0  0  0  0  0  0  0  0  0
  -17.7726  207.3547  114.9052 C   0  0  0  0  0  0  0  0  0  0  0  0
  -17.4165  203.8417  114.4858 C   0  0  0  0  0  0  0  0  0  0  0  0
  -17.3452  202.4210  113.9124 C   0  0  0  0  0  0  0  0  0  0  0  0
  -16.2754  201.6252  114.6654 C   0  0  0  0  0  0  0  0  0  0  0  0
  -14.8871  202.1622  114.3014 C   0  0  0  0  0  0  0  0  0  0  0  0
  -13.3168  210.6676  115.1515 C   0  0  0  0  0  0  0  0  0  0  0  0
  -11.9833  211.2783  115.5972 C   0  0  0  0  0  0  0  0  0  0  0  0
  -10.8612  210.7630  114.6915 C   0  0  0  0  0  0  0  0  0  0  0  0
  -10.6156  209.2780  114.9801 C   0  0  0  0  0  0  0  0  0  0  0  0
  -18.7049  209.3680  115.1434 H   0  0  0  0  0  0  0  0  0  0  0  0
   -9.7463  204.3707  118.1155 C   0  0  0  0  0  0  0  0  0  0  0  0
  -11.2190  204.4502  118.0948 N   0  3  0  0  0  0  0  0  0  0  0  0
  -11.6132  203.5257  118.3204 H   0  0  0  0  0  0  0  0  0  0  0  0
  -11.5335  205.1319  118.7999 H   0  0  0  0  0  0  0  0  0  0  0  0
  -12.9063  202.7987  116.4883 O   0  0  0  0  0  0  0  0  0  0  0  0
  -12.3846  201.5940  117.0528 C   0  0  0  0  0  0  0  0  0  0  0  0
  2  1  1  6  0  0  0
  2  7  1  0  0  0  0
  2 14  1  0  0  0  0
  2  3  1  0  0  0  0
  3  4  1  0  0  0  0
  3 37  1  1  0  0  0
  4  5  1  0  0  0  0
  4 34  1  1  0  0  0
  6  5  1  1  0  0  0
  6  7  1  0  0  0  0
  6  8  1  0  0  0  0
  8 12  1  0  0  0  0
  8  9  1  0  0  0  0
  9 31  1  0  0  0  0
  9 10  2  0  0  0  0
 10 11  1  0  0  0  0
 10 28  1  0  0  0  0
 11 19  1  0  0  0  0
 11 12  2  0  0  0  0
 12 13  1  0  0  0  0
 13 17  2  0  0  0  0
 13 14  1  0  0  0  0
 14 15  1  0  0  0  0
 15 27  1  0  0  0  0
 15 16  2  0  0  0  0
 16 17  1  0  0  0  0
 16 24  1  0  0  0  0
 17 18  1  0  0  0  0
 18 23  1  0  0  0  0
 18 19  2  0  0  0  0
 19 20  1  0  0  0  0
 20 21  2  0  0  0  0
 20 22  1  0  0  0  0
 22 23  1  0  0  0  0
 22 32  1  0  0  0  0
 24 25  1  0  0  0  0
 25 26  1  0  0  0  0
 26 27  1  0  0  0  0
 28 29  1  0  0  0  0
 29 30  1  0  0  0  0
 30 31  1  0  0  0  0
 33 34  1  0  0  0  0
 34 35  1  0  0  0  0
 34 36  1  0  0  0  0
 37 38  1  0  0  0  0
M  CHG  1  34   1
M  END
>  <minimizedAffinity>
0.00000

$$$$
