BDB50241104


 38 45  0  0  0  0  0  0  0  0999 V2000
  -16.0596  204.0225  116.3927 C   0  0  0  0  0  0  0  0  0  0  0  0
  -17.2924  204.7013  117.0127 C   0  0  0  0  0  0  0  0  0  0  0  0
  -17.1867  204.2910  118.4694 C   0  0  0  0  0  0  0  0  0  0  0  0
  -15.8220  204.7020  119.0369 C   0  0  0  0  0  0  0  0  0  0  0  0
  -14.3850  204.5388  118.1818 C   0  0  0  0  0  0  0  0  0  0  0  0
  -15.1687  203.5745  117.4940 O   0  0  0  0  0  0  0  0  0  0  0  0
  -16.7907  206.0204  111.5704 C   0  0  0  0  0  0  0  0  0  0  0  0
  -17.7544  205.5130  112.4327 C   0  0  0  0  0  0  0  0  0  0  0  0
  -17.4021  205.0255  113.6954 C   0  0  0  0  0  0  0  0  0  0  0  0
  -15.4461  206.0454  111.9458 C   0  0  0  0  0  0  0  0  0  0  0  0
  -15.0619  205.5667  113.2171 C   0  0  0  0  0  0  0  0  0  0  0  0
  -16.0511  205.0719  114.0862 C   0  0  0  0  0  0  0  0  0  0  0  0
  -15.4124  204.6678  115.2574 N   0  0  0  0  0  0  0  0  0  0  0  0
  -13.8036  205.4076  113.8642 C   0  0  0  0  0  0  0  0  0  0  0  0
  -14.0866  204.9353  115.1300 C   0  0  0  0  0  0  0  0  0  0  0  0
  -11.7688  204.6139  115.6974 C   0  0  0  0  0  0  0  0  0  0  0  0
  -13.1111  204.6398  116.0339 C   0  0  0  0  0  0  0  0  0  0  0  0
  -13.2808  204.3093  117.3403 N   0  0  0  0  0  0  0  0  0  0  0  0
  -11.1127  203.9799  116.7935 C   0  0  0  0  0  0  0  0  0  0  0  0
  -12.0928  203.6995  117.7622 C   0  0  0  0  0  0  0  0  0  0  0  0
  -11.7907  203.0059  118.9482 C   0  0  0  0  0  0  0  0  0  0  0  0
  -10.4686  202.6057  119.1601 C   0  0  0  0  0  0  0  0  0  0  0  0
   -9.4749  202.8925  118.2296 C   0  0  0  0  0  0  0  0  0  0  0  0
   -9.7841  203.5761  117.0484 C   0  0  0  0  0  0  0  0  0  0  0  0
  -12.4511  205.5674  113.5311 C   0  0  0  0  0  0  0  0  0  0  0  0
  -11.4481  205.1344  114.4378 C   0  0  0  0  0  0  0  0  0  0  0  0
  -10.1538  205.3160  113.7715 C   0  0  0  0  0  0  0  0  0  0  0  0
  -10.4109  205.8431  112.5229 N   0  0  0  0  0  0  0  0  0  0  0  0
  -11.8136  206.0400  112.2602 C   0  0  0  0  0  0  0  0  0  0  0  0
   -9.0610  205.0554  114.2356 O   0  0  0  0  0  0  0  0  0  0  0  0
  -13.7989  205.6001  119.1654 C   0  0  0  0  0  0  0  0  0  0  0  0
   -9.6624  206.0593  111.8765 H   0  0  0  0  0  0  0  0  0  0  0  0
  -18.3425  204.7061  119.3406 N   0  0  0  0  0  0  0  0  0  0  0  0
  -18.1726  205.7123  120.4220 C   0  0  0  0  0  0  0  0  0  0  0  0
  -18.7292  203.8532  119.7687 H   0  0  0  0  0  0  0  0  0  0  0  0
  -19.0955  205.0524  118.7281 H   0  0  0  0  0  0  0  0  0  0  0  0
  -17.5172  206.0825  116.7464 O   0  0  0  0  0  0  0  0  0  0  0  0
  -18.8252  206.5995  116.5870 C   0  0  0  0  0  0  0  0  0  0  0  0
  1  2  1  0  0  0
  1  6  1  0  0  0
  1 13  1  0  0  0
  2  3  1  0  0  0
  2 37  1  0  0  0
  3  4  1  0  0  0
  3 33  1  0  0  0
  4  5  1  0  0  0
  5  6  1  0  0  0
  5 18  1  0  0  0
  5 31  1  0  0  0
  7  8  2  0  0  0
  7 10  1  0  0  0
  8  9  1  0  0  0
  9 12  2  0  0  0
 10 11  2  0  0  0
 11 12  1  0  0  0
 11 14  1  0  0  0
 12 13  1  0  0  0
 13 15  1  0  0  0
 14 15  1  0  0  0
 14 25  2  0  0  0
 15 17  2  0  0  0
 16 17  1  0  0  0
 16 19  1  0  0  0
 16 26  2  0  0  0
 17 18  1  0  0  0
 18 20  1  0  0  0
 19 20  1  0  0  0
 19 24  2  0  0  0
 20 21  2  0  0  0
 21 22  1  0  0  0
 22 23  2  0  0  0
 23 24  1  0  0  0
 25 26  1  0  0  0
 25 29  1  0  0  0
 26 27  1  0  0  0
 27 28  1  0  0  0
 27 30  2  0  0  0
 28 29  1  0  0  0
 28 32  1  0  0  0
 37 38  1  0  0  0
 33 34  1  0  0  0
 33 35  1  0  0  0
 33 36  1  0  0  0
M  CHG 1  33   1
M  END
> <minimizedAffinity>
0.00000

$$$$
BDB50241104


 38 45  0  0  0  0  0  0  0  0999 V2000
  -13.5908  204.8579  115.7836 C   0  0  0  0  0  0  0  0  0  0  0  0
  -13.5185  204.7287  117.3143 C   0  0  0  0  0  0  0  0  0  0  0  0
  -13.7102  203.2379  117.5205 C   0  0  0  0  0  0  0  0  0  0  0  0
  -12.6637  202.4543  116.7180 C   0  0  0  0  0  0  0  0  0  0  0  0
  -12.2059  202.8682  115.1553 C   0  0  0  0  0  0  0  0  0  0  0  0
  -13.4777  203.4991  115.1936 O   0  0  0  0  0  0  0  0  0  0  0  0
  -12.5716  210.0284  115.6937 C   0  0  0  0  0  0  0  0  0  0  0  0
  -13.3976  209.3426  116.5751 C   0  0  0  0  0  0  0  0  0  0  0  0
  -13.5579  207.9566  116.4771 C   0  0  0  0  0  0  0  0  0  0  0  0
  -11.8901  209.3459  114.6841 C   0  0  0  0  0  0  0  0  0  0  0  0
  -12.0270  207.9458  114.5656 C   0  0  0  0  0  0  0  0  0  0  0  0
  -12.8533  207.2627  115.4762 C   0  0  0  0  0  0  0  0  0  0  0  0
  -12.8138  205.9103  115.1409 N   0  0  0  0  0  0  0  0  0  0  0  0
  -11.5253  206.9879  113.6392 C   0  0  0  0  0  0  0  0  0  0  0  0
  -11.9690  205.7602  114.0876 C   0  0  0  0  0  0  0  0  0  0  0  0
  -11.1215  204.5786  112.1685 C   0  0  0  0  0  0  0  0  0  0  0  0
  -11.6985  204.6001  113.4264 C   0  0  0  0  0  0  0  0  0  0  0  0
  -11.9611  203.3371  113.8514 N   0  0  0  0  0  0  0  0  0  0  0  0
  -11.2824  203.2421  111.6977 C   0  0  0  0  0  0  0  0  0  0  0  0
  -11.9076  202.5099  112.7227 C   0  0  0  0  0  0  0  0  0  0  0  0
  -12.2790  201.1633  112.5560 C   0  0  0  0  0  0  0  0  0  0  0  0
  -11.9958  200.5470  111.3343 C   0  0  0  0  0  0  0  0  0  0  0  0
  -11.3554  201.2412  110.3127 C   0  0  0  0  0  0  0  0  0  0  0  0
  -10.9957  202.5827  110.4827 C   0  0  0  0  0  0  0  0  0  0  0  0
  -10.7799  207.0015  112.4519 C   0  0  0  0  0  0  0  0  0  0  0  0
  -10.6173  205.8018  111.7104 C   0  0  0  0  0  0  0  0  0  0  0  0
   -9.9072  206.1489  110.4744 C   0  0  0  0  0  0  0  0  0  0  0  0
   -9.6664  207.5067  110.5128 N   0  0  0  0  0  0  0  0  0  0  0  0
  -10.1705  208.1461  111.7011 C   0  0  0  0  0  0  0  0  0  0  0  0
   -9.5874  205.3823  109.5869 O   0  0  0  0  0  0  0  0  0  0  0  0
  -10.9168  202.0285  115.4206 C   0  0  0  0  0  0  0  0  0  0  0  0
   -9.1795  207.9781  109.7609 H   0  0  0  0  0  0  0  0  0  0  0  0
  -13.8134  202.7946  118.9557 N   0  0  0  0  0  0  0  0  0  0  0  0
  -12.7592  201.9540  119.5825 C   0  0  0  0  0  0  0  0  0  0  0  0
  -14.7096  202.2989  119.0628 H   0  0  0  0  0  0  0  0  0  0  0  0
  -13.9111  203.6356  119.5433 H   0  0  0  0  0  0  0  0  0  0  0  0
  -12.4300  205.3400  118.0003 O   0  0  0  0  0  0  0  0  0  0  0  0
  -12.5996  205.9290  119.2761 C   0  0  0  0  0  0  0  0  0  0  0  0
  1  2  1  0  0  0
  1  6  1  0  0  0
  1 13  1  0  0  0
  2  3  1  0  0  0
  2 37  1  0  0  0
  3  4  1  0  0  0
  3 33  1  0  0  0
  4  5  1  0  0  0
  5  6  1  0  0  0
  5 18  1  0  0  0
  5 31  1  0  0  0
  7  8  2  0  0  0
  7 10  1  0  0  0
  8  9  1  0  0  0
  9 12  2  0  0  0
 10 11  2  0  0  0
 11 12  1  0  0  0
 11 14  1  0  0  0
 12 13  1  0  0  0
 13 15  1  0  0  0
 14 15  1  0  0  0
 14 25  2  0  0  0
 15 17  2  0  0  0
 16 17  1  0  0  0
 16 19  1  0  0  0
 16 26  2  0  0  0
 17 18  1  0  0  0
 18 20  1  0  0  0
 19 20  1  0  0  0
 19 24  2  0  0  0
 20 21  2  0  0  0
 21 22  1  0  0  0
 22 23  2  0  0  0
 23 24  1  0  0  0
 25 26  1  0  0  0
 25 29  1  0  0  0
 26 27  1  0  0  0
 27 28  1  0  0  0
 27 30  2  0  0  0
 28 29  1  0  0  0
 28 32  1  0  0  0
 37 38  1  0  0  0
 33 34  1  0  0  0
 33 35  1  0  0  0
 33 36  1  0  0  0
M  CHG 1  33   1
M  END
> <minimizedAffinity>
0.00000

$$$$
BDB50241104


 38 45  0  0  0  0  0  0  0  0999 V2000
  -14.7109  202.3983  116.1027 C   0  0  0  0  0  0  0  0  0  0  0  0
  -15.8405  203.0252  116.9370 C   0  0  0  0  0  0  0  0  0  0  0  0
  -15.3786  202.7567  118.3569 C   0  0  0  0  0  0  0  0  0  0  0  0
  -13.9714  203.3286  118.5721 C   0  0  0  0  0  0  0  0  0  0  0  0
  -12.7468  203.2096  117.4279 C   0  0  0  0  0  0  0  0  0  0  0  0
  -13.5606  202.1260  117.0026 O   0  0  0  0  0  0  0  0  0  0  0  0
  -16.6750  203.8900  111.4446 C   0  0  0  0  0  0  0  0  0  0  0  0
  -17.3709  203.3835  112.5349 C   0  0  0  0  0  0  0  0  0  0  0  0
  -16.7041  203.0416  113.7158 C   0  0  0  0  0  0  0  0  0  0  0  0
  -15.2904  204.0599  111.5041 C   0  0  0  0  0  0  0  0  0  0  0  0
  -14.5916  203.7302  112.6857 C   0  0  0  0  0  0  0  0  0  0  0  0
  -15.3121  203.2346  113.7874 C   0  0  0  0  0  0  0  0  0  0  0  0
  -14.3957  202.9911  114.8091 N   0  0  0  0  0  0  0  0  0  0  0  0
  -13.2129  203.7346  113.0414 C   0  0  0  0  0  0  0  0  0  0  0  0
  -13.1636  203.3553  114.3677 C   0  0  0  0  0  0  0  0  0  0  0  0
  -10.7575  203.2794  114.4179 C   0  0  0  0  0  0  0  0  0  0  0  0
  -11.9895  203.2237  115.0462 C   0  0  0  0  0  0  0  0  0  0  0  0
  -11.8357  202.9982  116.3767 N   0  0  0  0  0  0  0  0  0  0  0  0
   -9.8174  202.8024  115.3785 C   0  0  0  0  0  0  0  0  0  0  0  0
  -10.5289  202.5292  116.5602 C   0  0  0  0  0  0  0  0  0  0  0  0
   -9.9068  201.9718  117.6922 C   0  0  0  0  0  0  0  0  0  0  0  0
   -8.5369  201.7032  117.6271 C   0  0  0  0  0  0  0  0  0  0  0  0
   -7.8045  201.9873  116.4789 C   0  0  0  0  0  0  0  0  0  0  0  0
   -8.4315  202.5347  115.3540 C   0  0  0  0  0  0  0  0  0  0  0  0
  -11.9890  203.9756  112.4015 C   0  0  0  0  0  0  0  0  0  0  0  0
  -10.7737  203.7101  113.0858 C   0  0  0  0  0  0  0  0  0  0  0  0
   -9.6812  203.9383  112.1337 C   0  0  0  0  0  0  0  0  0  0  0  0
  -10.2565  204.3286  110.9422 N   0  0  0  0  0  0  0  0  0  0  0  0
  -11.6953  204.3842  110.9901 C   0  0  0  0  0  0  0  0  0  0  0  0
   -8.4928  203.8118  112.3559 O   0  0  0  0  0  0  0  0  0  0  0  0
  -12.0702  204.3994  118.1787 C   0  0  0  0  0  0  0  0  0  0  0  0
   -9.6930  204.5475  110.1303 H   0  0  0  0  0  0  0  0  0  0  0  0
  -16.3520  203.1507  119.4358 N   0  0  0  0  0  0  0  0  0  0  0  0
  -16.0524  204.2600  120.3794 C   0  0  0  0  0  0  0  0  0  0  0  0
  -16.5479  202.3103  119.9977 H   0  0  0  0  0  0  0  0  0  0  0  0
  -17.2516  203.3772  118.9869 H   0  0  0  0  0  0  0  0  0  0  0  0
  -16.2562  204.3536  116.6342 O   0  0  0  0  0  0  0  0  0  0  0  0
  -17.6127  204.7440  116.7391 C   0  0  0  0  0  0  0  0  0  0  0  0
  1  2  1  0  0  0
  1  6  1  0  0  0
  1 13  1  0  0  0
  2  3  1  0  0  0
  2 37  1  0  0  0
  3  4  1  0  0  0
  3 33  1  0  0  0
  4  5  1  0  0  0
  5  6  1  0  0  0
  5 18  1  0  0  0
  5 31  1  0  0  0
  7  8  2  0  0  0
  7 10  1  0  0  0
  8  9  1  0  0  0
  9 12  2  0  0  0
 10 11  2  0  0  0
 11 12  1  0  0  0
 11 14  1  0  0  0
 12 13  1  0  0  0
 13 15  1  0  0  0
 14 15  1  0  0  0
 14 25  2  0  0  0
 15 17  2  0  0  0
 16 17  1  0  0  0
 16 19  1  0  0  0
 16 26  2  0  0  0
 17 18  1  0  0  0
 18 20  1  0  0  0
 19 20  1  0  0  0
 19 24  2  0  0  0
 20 21  2  0  0  0
 21 22  1  0  0  0
 22 23  2  0  0  0
 23 24  1  0  0  0
 25 26  1  0  0  0
 25 29  1  0  0  0
 26 27  1  0  0  0
 27 28  1  0  0  0
 27 30  2  0  0  0
 28 29  1  0  0  0
 28 32  1  0  0  0
 37 38  1  0  0  0
 33 34  1  0  0  0
 33 35  1  0  0  0
 33 36  1  0  0  0
M  CHG 1  33   1
M  END
> <minimizedAffinity>
0.00000

$$$$
