BDB50241104
 OpenBabel07192212403D

 38 45  0  0  0  0  0  0  0  0999 V2000
  -16.0596  204.0225  116.3927 C   0  0  2  0  0  0  0  0  0  0  0  0
  -17.2924  204.7013  117.0127 C   0  0  1  0  0  0  0  0  0  0  0  0
  -17.1867  204.2910  118.4694 C   0  0  1  0  0  0  0  0  0  0  0  0
  -15.8220  204.7020  119.0369 C   0  0  0  0  0  0  0  0  0  0  0  0
  -14.3850  204.5388  118.1818 C   0  0  1  0  0  0  0  0  0  0  0  0
  -15.1687  203.5745  117.4940 O   0  0  0  0  0  0  0  0  0  0  0  0
  -16.7907  206.0204  111.5704 C   0  0  0  0  0  0  0  0  0  0  0  0
  -17.7544  205.5130  112.4327 C   0  0  0  0  0  0  0  0  0  0  0  0
  -17.4021  205.0255  113.6954 C   0  0  0  0  0  0  0  0  0  0  0  0
  -15.4461  206.0454  111.9458 C   0  0  0  0  0  0  0  0  0  0  0  0
  -15.0619  205.5667  113.2171 C   0  0  0  0  0  0  0  0  0  0  0  0
  -16.0511  205.0719  114.0862 C   0  0  0  0  0  0  0  0  0  0  0  0
  -15.4124  204.6678  115.2574 N   0  0  0  0  0  0  0  0  0  0  0  0
  -13.8036  205.4076  113.8642 C   0  0  0  0  0  0  0  0  0  0  0  0
  -14.0866  204.9353  115.1300 C   0  0  0  0  0  0  0  0  0  0  0  0
  -11.7688  204.6139  115.6974 C   0  0  0  0  0  0  0  0  0  0  0  0
  -13.1111  204.6398  116.0339 C   0  0  0  0  0  0  0  0  0  0  0  0
  -13.2808  204.3093  117.3403 N   0  0  0  0  0  0  0  0  0  0  0  0
  -11.1127  203.9799  116.7935 C   0  0  0  0  0  0  0  0  0  0  0  0
  -12.0928  203.6995  117.7622 C   0  0  0  0  0  0  0  0  0  0  0  0
  -11.7907  203.0059  118.9482 C   0  0  0  0  0  0  0  0  0  0  0  0
  -10.4686  202.6057  119.1601 C   0  0  0  0  0  0  0  0  0  0  0  0
   -9.4749  202.8925  118.2296 C   0  0  0  0  0  0  0  0  0  0  0  0
   -9.7841  203.5761  117.0484 C   0  0  0  0  0  0  0  0  0  0  0  0
  -12.4511  205.5674  113.5311 C   0  0  0  0  0  0  0  0  0  0  0  0
  -11.4481  205.1344  114.4378 C   0  0  0  0  0  0  0  0  0  0  0  0
  -10.1538  205.3160  113.7715 C   0  0  0  0  0  0  0  0  0  0  0  0
  -10.4109  205.8431  112.5229 N   0  0  0  0  0  0  0  0  0  0  0  0
  -11.8136  206.0400  112.2602 C   0  0  0  0  0  0  0  0  0  0  0  0
   -9.0610  205.0554  114.2356 O   0  0  0  0  0  0  0  0  0  0  0  0
  -13.7989  205.6001  119.1654 C   0  0  0  0  0  0  0  0  0  0  0  0
   -9.6624  206.0593  111.8765 H   0  0  0  0  0  0  0  0  0  0  0  0
  -18.3425  204.7061  119.3406 N   0  3  0  0  0  0  0  0  0  0  0  0
  -18.1726  205.7123  120.4220 C   0  0  0  0  0  0  0  0  0  0  0  0
  -18.7292  203.8532  119.7687 H   0  0  0  0  0  0  0  0  0  0  0  0
  -19.0955  205.0524  118.7281 H   0  0  0  0  0  0  0  0  0  0  0  0
  -17.5172  206.0825  116.7464 O   0  0  0  0  0  0  0  0  0  0  0  0
  -18.8252  206.5995  116.5870 C   0  0  0  0  0  0  0  0  0  0  0  0
  1  2  1  0  0  0  0
  1  6  1  1  0  0  0
  1 13  1  0  0  0  0
  2  3  1  0  0  0  0
  2 37  1  1  0  0  0
  3  4  1  0  0  0  0
  3 33  1  1  0  0  0
  4  5  1  0  0  0  0
  5  6  1  0  0  0  0
  5 18  1  0  0  0  0
  5 31  1  1  0  0  0
  7  8  2  0  0  0  0
  7 10  1  0  0  0  0
  8  9  1  0  0  0  0
  9 12  2  0  0  0  0
 10 11  2  0  0  0  0
 11 12  1  0  0  0  0
 11 14  1  0  0  0  0
 12 13  1  0  0  0  0
 13 15  1  0  0  0  0
 14 15  1  0  0  0  0
 14 25  2  0  0  0  0
 15 17  2  0  0  0  0
 16 17  1  0  0  0  0
 16 19  1  0  0  0  0
 16 26  2  0  0  0  0
 17 18  1  0  0  0  0
 18 20  1  0  0  0  0
 19 20  1  0  0  0  0
 19 24  2  0  0  0  0
 20 21  2  0  0  0  0
 21 22  1  0  0  0  0
 22 23  2  0  0  0  0
 23 24  1  0  0  0  0
 25 26  1  0  0  0  0
 25 29  1  0  0  0  0
 26 27  1  0  0  0  0
 27 28  1  0  0  0  0
 27 30  2  0  0  0  0
 28 29  1  0  0  0  0
 28 32  1  0  0  0  0
 33 34  1  0  0  0  0
 33 35  1  0  0  0  0
 33 36  1  0  0  0  0
 37 38  1  0  0  0  0
M  CHG  1  33   1
M  END
>  <minimizedAffinity>
0.00000

$$$$
