ZINC28537122
 OpenBabel07192212403D

 36 40  0  0  0  0  0  0  0  0999 V2000
  -18.6036  200.1308  115.1062 C   0  0  0  0  0  0  0  0  0  0  0  0
  -17.9671  201.3809  114.6704 N   0  3  2  0  0  0  0  0  0  0  0  0
  -16.5979  201.1395  114.2073 C   0  0  0  0  0  0  0  0  0  0  0  0
  -15.9909  202.4485  113.6860 C   0  0  0  0  0  0  0  0  0  0  0  0
  -15.9971  203.4529  114.8454 C   0  0  1  0  0  0  0  0  0  0  0  0
  -15.3258  204.7540  114.4404 C   0  0  0  0  0  0  0  0  0  0  0  0
  -16.1659  205.5253  113.4569 C   0  0  0  0  0  0  0  0  0  0  0  0
  -17.4543  205.2793  113.2643 C   0  0  0  0  0  0  0  0  0  0  0  0
  -18.2013  204.1855  113.9762 C   0  0  0  0  0  0  0  0  0  0  0  0
  -17.4558  203.7285  115.2311 C   0  0  1  0  0  0  0  0  0  0  0  0
  -18.0624  202.4030  115.7037 C   0  0  2  0  0  0  0  0  0  0  0  0
  -17.4281  201.9759  117.0137 C   0  0  0  0  0  0  0  0  0  0  0  0
  -15.9317  202.1349  116.9972 C   0  0  0  0  0  0  0  0  0  0  0  0
  -15.2694  202.8294  116.0095 C   0  0  0  0  0  0  0  0  0  0  0  0
  -13.8862  202.9611  116.0615 C   0  0  0  0  0  0  0  0  0  0  0  0
  -13.1666  202.3912  117.1050 C   0  0  0  0  0  0  0  0  0  0  0  0
  -13.8359  201.6852  118.0913 C   0  0  0  0  0  0  0  0  0  0  0  0
  -15.2081  201.5539  118.0313 C   0  0  0  0  0  0  0  0  0  0  0  0
  -13.2347  203.6511  115.0874 O   0  0  0  0  0  0  0  0  0  0  0  0
  -18.2273  206.1244  112.2689 C   0  0  2  0  0  0  0  0  0  0  0  0
  -17.3064  206.5755  111.2187 N   0  0  0  0  0  0  0  0  0  0  0  0
  -16.0534  207.0759  111.6148 N   0  0  0  0  0  0  0  0  0  0  0  0
  -15.5002  206.5907  112.6841 C   0  0  0  0  0  0  0  0  0  0  0  0
  -18.4802  201.7507  113.8575 H   0  0  0  0  0  0  0  0  0  0  0  0
  -13.6538  204.5480  115.0852 H   0  0  0  0  0  0  0  0  0  0  0  0
  -17.5694  206.5272  110.2241 H   0  0  0  0  0  0  0  0  0  0  0  0
  -14.1649  207.1205  113.1400 C   0  0  0  0  0  0  0  0  0  0  0  0
  -13.1917  206.1275  112.9850 F   0  0  0  0  0  0  0  0  0  0  0  0
  -13.8190  208.2367  112.3710 F   0  0  0  0  0  0  0  0  0  0  0  0
  -14.2448  207.4889  114.4873 F   0  0  0  0  0  0  0  0  0  0  0  0
  -18.8263  207.3381  112.9824 C   0  0  0  0  0  0  0  0  0  0  0  0
  -20.2049  207.1553  113.1358 F   0  0  0  0  0  0  0  0  0  0  0  0
  -18.2318  207.4798  114.2407 F   0  0  0  0  0  0  0  0  0  0  0  0
  -18.5902  208.4889  112.2227 F   0  0  0  0  0  0  0  0  0  0  0  0
  -11.8144  202.5261  117.1577 O   0  0  0  0  0  0  0  0  0  0  0  0
  -11.2918  203.4567  118.1080 C   0  0  0  0  0  0  0  0  0  0  0  0
  1  2  1  0  0  0  0
  2 11  1  0  0  0  0
  2  3  1  0  0  0  0
  2 24  1  6  0  0  0
  3  4  1  0  0  0  0
  5  4  1  6  0  0  0
  5 10  1  0  0  0  0
  5 14  1  0  0  0  0
  5  6  1  0  0  0  0
  6  7  1  0  0  0  0
  7 23  1  0  0  0  0
  7  8  2  0  0  0  0
  8  9  1  0  0  0  0
  8 20  1  0  0  0  0
 10  9  1  6  0  0  0
 10 11  1  0  0  0  0
 11 12  1  1  0  0  0
 12 13  1  0  0  0  0
 13 18  2  0  0  0  0
 13 14  1  0  0  0  0
 14 15  2  0  0  0  0
 15 16  1  0  0  0  0
 15 19  1  0  0  0  0
 16 17  2  0  0  0  0
 16 35  1  0  0  0  0
 17 18  1  0  0  0  0
 19 25  1  0  0  0  0
 20 21  1  0  0  0  0
 20 31  1  1  0  0  0
 21 22  1  0  0  0  0
 21 26  1  0  0  0  0
 22 23  2  0  0  0  0
 23 27  1  0  0  0  0
 27 28  1  0  0  0  0
 27 29  1  0  0  0  0
 27 30  1  0  0  0  0
 31 32  1  0  0  0  0
 31 33  1  0  0  0  0
 31 34  1  0  0  0  0
 35 36  1  0  0  0  0
M  CHG  1   2   1
M  END
>  <minimizedAffinity>
-0.00153

$$$$
