ZINC14974486


 38 43  0  0  0  0  0  0  0  0999 V2000
  -10.7084  205.7698  115.8375 C   0  0  0  0  0  0  0  0  0  0  0  0
  -11.9849  205.3073  115.8380 C   0  0  0  0  0  0  0  0  0  0  0  0
  -12.3583  204.2820  114.9695 C   0  0  0  0  0  0  0  0  0  0  0  0
  -11.4030  203.7457  114.1086 C   0  0  0  0  0  0  0  0  0  0  0  0
  -10.0806  204.2584  114.1493 C   0  0  0  0  0  0  0  0  0  0  0  0
   -9.2253  203.8029  113.4099 O   0  0  0  0  0  0  0  0  0  0  0  0
   -9.7748  205.2534  115.0035 N   0  0  0  0  0  0  0  0  0  0  0  0
   -8.8155  205.6278  115.0228 H   0  0  0  0  0  0  0  0  0  0  0  0
  -11.7576  202.6630  113.1782 C   0  0  0  0  0  0  0  0  0  0  0  0
  -12.5528  201.8067  113.5163 O   0  0  0  0  0  0  0  0  0  0  0  0
  -11.2016  202.6197  111.9513 N   0  0  0  0  0  0  0  0  0  0  0  0
  -10.5861  203.3836  111.6375 H   0  0  0  0  0  0  0  0  0  0  0  0
  -11.4728  201.4861  111.0637 C   0  0  0  0  0  0  0  0  0  0  0  0
  -11.8986  201.9815  109.7035 C   0  0  0  0  0  0  0  0  0  0  0  0
  -12.9650  202.7519  109.2910 C   0  0  0  0  0  0  0  0  0  0  0  0
  -13.1148  203.0674  107.9520 C   0  0  0  0  0  0  0  0  0  0  0  0
  -12.2009  202.6027  107.0236 C   0  0  0  0  0  0  0  0  0  0  0  0
  -11.1307  201.8317  107.4274 C   0  0  0  0  0  0  0  0  0  0  0  0
  -10.9705  201.5135  108.7772 C   0  0  0  0  0  0  0  0  0  0  0  0
   -9.9323  200.7171  109.4772 C   0  0  0  0  0  0  0  0  0  0  0  0
  -10.2119  200.6876  110.8408 C   0  0  0  0  0  0  0  0  0  0  0  0
   -9.3837  200.0045  111.7059 C   0  0  0  0  0  0  0  0  0  0  0  0
   -8.2686  199.3441  111.2208 C   0  0  0  0  0  0  0  0  0  0  0  0
   -7.9825  199.3677  109.8677 C   0  0  0  0  0  0  0  0  0  0  0  0
   -8.8059  200.0483  108.9950 C   0  0  0  0  0  0  0  0  0  0  0  0
  -10.3233  206.8784  116.7829 C   0  0  0  0  0  0  0  0  0  0  0  0
  -11.1451  208.2282  119.6471 C   0  0  0  0  0  0  0  0  0  0  0  0
  -10.3667  207.0878  120.3100 C   0  0  0  0  0  0  0  0  0  0  0  0
  -10.5326  205.7913  119.5385 C   0  0  0  0  0  0  0  0  0  0  0  0
   -9.3927  205.4473  118.5862 C   0  0  0  0  0  0  0  0  0  0  0  0
   -8.0809  205.5070  119.4245 C   0  0  0  0  0  0  0  0  0  0  0  0
   -7.9282  207.0499  119.5437 C   0  0  0  0  0  0  0  0  0  0  0  0
   -8.9364  207.5097  120.5964 C   0  0  0  0  0  0  0  0  0  0  0  0
   -8.3834  207.5583  118.1541 C   0  0  0  0  0  0  0  0  0  0  0  0
   -6.4891  207.4704  119.8749 C   0  0  0  0  0  0  0  0  0  0  0  0
  -11.0414  206.8632  121.6926 C   0  0  0  0  0  0  0  0  0  0  0  0
   -9.0914  206.4375  117.5311 N   0  0  0  0  0  0  0  0  0  0  0  0
   -8.4915  206.0050  116.8141 H   0  0  0  0  0  0  0  0  0  0  0  0
 27 28  1  0  0  0
 28 33  1  0  0  0
 28 29  1  0  0  0
 28 36  1  0  0  0
 29 30  1  0  0  0
 30 31  1  0  0  0
 30 37  1  0  0  0
 31 32  1  0  0  0
 32 33  1  0  0  0
 32 34  1  0  0  0
 32 35  1  0  0  0
 34 37  1  0  0  0
 26  1  1  0  0  0
 26 37  1  0  0  0
  1  7  1  0  0  0
  1  2  2  0  0  0
  2  3  1  0  0  0
  3  4  2  0  0  0
  4  5  1  0  0  0
  4  9  1  0  0  0
  5  6  2  0  0  0
  5  7  1  0  0  0
  7  8  1  0  0  0
  9 10  2  0  0  0
  9 11  1  0  0  0
 11 13  1  0  0  0
 11 12  1  0  0  0
 13 21  1  0  0  0
 13 14  1  0  0  0
 14 19  2  0  0  0
 14 15  1  0  0  0
 15 16  2  0  0  0
 16 17  1  0  0  0
 17 18  2  0  0  0
 18 19  1  0  0  0
 19 20  1  0  0  0
 20 25  2  0  0  0
 20 21  1  0  0  0
 21 22  2  0  0  0
 22 23  1  0  0  0
 23 24  2  0  0  0
 24 25  1  0  0  0
 37 38  1  0  0  0
M  CHG 1  37   1
M  END
> <minimizedAffinity>
-0.00008

$$$$
ZINC14974486


 38 43  0  0  0  0  0  0  0  0999 V2000
  -14.1384  209.6305  115.4532 C   0  0  0  0  0  0  0  0  0  0  0  0
  -13.2955  208.6498  115.0397 C   0  0  0  0  0  0  0  0  0  0  0  0
  -12.3347  208.1387  115.9118 C   0  0  0  0  0  0  0  0  0  0  0  0
  -12.2578  208.6501  117.2057 C   0  0  0  0  0  0  0  0  0  0  0  0
  -13.1644  209.6706  117.5930 C   0  0  0  0  0  0  0  0  0  0  0  0
  -13.1211  210.1311  118.7207 O   0  0  0  0  0  0  0  0  0  0  0  0
  -14.0693  210.1323  116.7092 N   0  0  0  0  0  0  0  0  0  0  0  0
  -14.7194  210.8792  116.9929 H   0  0  0  0  0  0  0  0  0  0  0  0
  -11.2585  208.1369  118.1551 C   0  0  0  0  0  0  0  0  0  0  0  0
  -10.9602  206.9576  118.1460 O   0  0  0  0  0  0  0  0  0  0  0  0
  -10.6732  208.9733  119.0351 N   0  0  0  0  0  0  0  0  0  0  0  0
  -10.8698  209.9835  118.9944 H   0  0  0  0  0  0  0  0  0  0  0  0
   -9.7573  208.4455  120.0495 C   0  0  0  0  0  0  0  0  0  0  0  0
   -8.4705  209.2337  120.0479 C   0  0  0  0  0  0  0  0  0  0  0  0
   -7.5136  209.4418  119.0773 C   0  0  0  0  0  0  0  0  0  0  0  0
   -6.4101  210.2307  119.3504 C   0  0  0  0  0  0  0  0  0  0  0  0
   -6.2596  210.8040  120.6001 C   0  0  0  0  0  0  0  0  0  0  0  0
   -7.2122  210.6014  121.5771 C   0  0  0  0  0  0  0  0  0  0  0  0
   -8.3305  209.8107  121.3072 C   0  0  0  0  0  0  0  0  0  0  0  0
   -9.4879  209.4324  122.1554 C   0  0  0  0  0  0  0  0  0  0  0  0
  -10.3508  208.6190  121.4260 C   0  0  0  0  0  0  0  0  0  0  0  0
  -11.5062  208.1367  122.0034 C   0  0  0  0  0  0  0  0  0  0  0  0
  -11.8133  208.4602  123.3132 C   0  0  0  0  0  0  0  0  0  0  0  0
  -10.9622  209.2677  124.0459 C   0  0  0  0  0  0  0  0  0  0  0  0
   -9.8039  209.7543  123.4764 C   0  0  0  0  0  0  0  0  0  0  0  0
  -15.1703  210.1706  114.4968 C   0  0  0  0  0  0  0  0  0  0  0  0
  -16.9117  209.3554  111.8504 C   0  0  0  0  0  0  0  0  0  0  0  0
  -17.8553  208.6172  112.8046 C   0  0  0  0  0  0  0  0  0  0  0  0
  -17.0868  207.9709  113.9428 C   0  0  0  0  0  0  0  0  0  0  0  0
  -17.0688  208.7576  115.2486 C   0  0  0  0  0  0  0  0  0  0  0  0
  -18.5544  209.0676  115.6005 C   0  0  0  0  0  0  0  0  0  0  0  0
  -18.8285  210.1949  114.5650 C   0  0  0  0  0  0  0  0  0  0  0  0
  -19.0142  209.5104  113.2111 C   0  0  0  0  0  0  0  0  0  0  0  0
  -17.5006  210.9906  114.5494 C   0  0  0  0  0  0  0  0  0  0  0  0
  -20.0272  211.0701  114.9583 C   0  0  0  0  0  0  0  0  0  0  0  0
  -18.4697  207.4541  111.9758 C   0  0  0  0  0  0  0  0  0  0  0  0
  -16.5082  210.1239  115.1893 N   0  0  0  0  0  0  0  0  0  0  0  0
  -16.3195  210.4605  116.1444 H   0  0  0  0  0  0  0  0  0  0  0  0
 27 28  1  0  0  0
 28 33  1  0  0  0
 28 29  1  0  0  0
 28 36  1  0  0  0
 29 30  1  0  0  0
 30 31  1  0  0  0
 30 37  1  0  0  0
 31 32  1  0  0  0
 32 33  1  0  0  0
 32 34  1  0  0  0
 32 35  1  0  0  0
 34 37  1  0  0  0
 26  1  1  0  0  0
 26 37  1  0  0  0
  1  7  1  0  0  0
  1  2  2  0  0  0
  2  3  1  0  0  0
  3  4  2  0  0  0
  4  5  1  0  0  0
  4  9  1  0  0  0
  5  6  2  0  0  0
  5  7  1  0  0  0
  7  8  1  0  0  0
  9 10  2  0  0  0
  9 11  1  0  0  0
 11 13  1  0  0  0
 11 12  1  0  0  0
 13 21  1  0  0  0
 13 14  1  0  0  0
 14 19  2  0  0  0
 14 15  1  0  0  0
 15 16  2  0  0  0
 16 17  1  0  0  0
 17 18  2  0  0  0
 18 19  1  0  0  0
 19 20  1  0  0  0
 20 25  2  0  0  0
 20 21  1  0  0  0
 21 22  2  0  0  0
 22 23  1  0  0  0
 23 24  2  0  0  0
 24 25  1  0  0  0
 37 38  1  0  0  0
M  CHG 1  37   1
M  END
> <minimizedAffinity>
0.00000

$$$$
ZINC14974486


 38 43  0  0  0  0  0  0  0  0999 V2000
  -16.6379  204.4396  113.0138 C   0  0  0  0  0  0  0  0  0  0  0  0
  -17.8439  204.8370  113.4943 C   0  0  0  0  0  0  0  0  0  0  0  0
  -18.0554  204.9233  114.8701 C   0  0  0  0  0  0  0  0  0  0  0  0
  -17.0127  204.5967  115.7348 C   0  0  0  0  0  0  0  0  0  0  0  0
  -15.7689  204.1924  115.1846 C   0  0  0  0  0  0  0  0  0  0  0  0
  -14.8395  203.9062  115.9195 O   0  0  0  0  0  0  0  0  0  0  0  0
  -15.6201  204.1205  113.8482 N   0  0  0  0  0  0  0  0  0  0  0  0
  -14.7177  203.8181  113.4543 H   0  0  0  0  0  0  0  0  0  0  0  0
  -17.1963  204.6756  117.1920 C   0  0  0  0  0  0  0  0  0  0  0  0
  -17.8856  205.5559  117.6714 O   0  0  0  0  0  0  0  0  0  0  0  0
  -16.6009  203.7726  117.9961 N   0  0  0  0  0  0  0  0  0  0  0  0
  -16.0786  202.9845  117.5875 H   0  0  0  0  0  0  0  0  0  0  0  0
  -16.6966  203.9120  119.4513 C   0  0  0  0  0  0  0  0  0  0  0  0
  -17.1389  202.6087  120.0701 C   0  0  0  0  0  0  0  0  0  0  0  0
  -18.2815  201.8524  119.9175 C   0  0  0  0  0  0  0  0  0  0  0  0
  -18.4279  200.6692  120.6201 C   0  0  0  0  0  0  0  0  0  0  0  0
  -17.4331  200.2478  121.4838 C   0  0  0  0  0  0  0  0  0  0  0  0
  -16.2865  200.9981  121.6422 C   0  0  0  0  0  0  0  0  0  0  0  0
  -16.1297  202.1903  120.9331 C   0  0  0  0  0  0  0  0  0  0  0  0
  -15.0209  203.1763  120.9115 C   0  0  0  0  0  0  0  0  0  0  0  0
  -15.3375  204.2107  120.0351 C   0  0  0  0  0  0  0  0  0  0  0  0
  -14.4565  205.2538  119.8433 C   0  0  0  0  0  0  0  0  0  0  0  0
  -13.2513  205.2765  120.5228 C   0  0  0  0  0  0  0  0  0  0  0  0
  -12.9279  204.2533  121.3956 C   0  0  0  0  0  0  0  0  0  0  0  0
  -13.8035  203.2060  121.5940 C   0  0  0  0  0  0  0  0  0  0  0  0
  -16.4278  204.3522  111.5240 C   0  0  0  0  0  0  0  0  0  0  0  0
  -17.5051  205.5812  108.6904 C   0  0  0  0  0  0  0  0  0  0  0  0
  -16.6080  206.7901  108.9725 C   0  0  0  0  0  0  0  0  0  0  0  0
  -16.5820  207.1181  110.4542 C   0  0  0  0  0  0  0  0  0  0  0  0
  -15.3782  206.5821  111.2210 C   0  0  0  0  0  0  0  0  0  0  0  0
  -14.1118  207.0690  110.4555 C   0  0  0  0  0  0  0  0  0  0  0  0
  -14.1620  206.0976  109.2421 C   0  0  0  0  0  0  0  0  0  0  0  0
  -15.2533  206.6198  108.3080 C   0  0  0  0  0  0  0  0  0  0  0  0
  -14.6350  204.7663  109.8749 C   0  0  0  0  0  0  0  0  0  0  0  0
  -12.7997  205.9606  108.5471 C   0  0  0  0  0  0  0  0  0  0  0  0
  -17.2912  207.9967  108.2694 C   0  0  0  0  0  0  0  0  0  0  0  0
  -15.1736  205.1186  111.1907 N   0  0  0  0  0  0  0  0  0  0  0  0
  -14.5011  204.8497  111.9231 H   0  0  0  0  0  0  0  0  0  0  0  0
 27 28  1  0  0  0
 28 33  1  0  0  0
 28 29  1  0  0  0
 28 36  1  0  0  0
 29 30  1  0  0  0
 30 31  1  0  0  0
 30 37  1  0  0  0
 31 32  1  0  0  0
 32 33  1  0  0  0
 32 34  1  0  0  0
 32 35  1  0  0  0
 34 37  1  0  0  0
 26  1  1  0  0  0
 26 37  1  0  0  0
  1  7  1  0  0  0
  1  2  2  0  0  0
  2  3  1  0  0  0
  3  4  2  0  0  0
  4  5  1  0  0  0
  4  9  1  0  0  0
  5  6  2  0  0  0
  5  7  1  0  0  0
  7  8  1  0  0  0
  9 10  2  0  0  0
  9 11  1  0  0  0
 11 13  1  0  0  0
 11 12  1  0  0  0
 13 21  1  0  0  0
 13 14  1  0  0  0
 14 19  2  0  0  0
 14 15  1  0  0  0
 15 16  2  0  0  0
 16 17  1  0  0  0
 17 18  2  0  0  0
 18 19  1  0  0  0
 19 20  1  0  0  0
 20 25  2  0  0  0
 20 21  1  0  0  0
 21 22  2  0  0  0
 22 23  1  0  0  0
 23 24  2  0  0  0
 24 25  1  0  0  0
 37 38  1  0  0  0
M  CHG 1  37   1
M  END
> <minimizedAffinity>
0.00008

$$$$
