BDB50263147


 33 36  0  0  0  0  0  0  0  0999 V2000
   -7.5748  209.2624  113.3122 N   0  0  0  0  0  0  0  0  0  0  0  0
   -7.4702  210.2377  113.0673 H   0  0  0  0  0  0  0  0  0  0  0  0
   -7.0794  206.9031  109.9843 C   0  0  0  0  0  0  0  0  0  0  0  0
   -8.1705  206.7382  110.8072 C   0  0  0  0  0  0  0  0  0  0  0  0
   -8.3818  207.5189  111.8876 N   0  0  0  0  0  0  0  0  0  0  0  0
   -7.4666  208.4655  112.1733 C   0  0  0  0  0  0  0  0  0  0  0  0
   -6.3661  208.6760  111.4266 N   0  0  0  0  0  0  0  0  0  0  0  0
   -6.1994  207.8922  110.3412 C   0  0  0  0  0  0  0  0  0  0  0  0
   -6.8641  206.1511  108.8983 F   0  0  0  0  0  0  0  0  0  0  0  0
   -9.2127  205.7511  110.5409 C   0  0  0  0  0  0  0  0  0  0  0  0
   -9.4050  204.5240  111.1721 N   0  0  0  0  0  0  0  0  0  0  0  0
  -10.5647  203.9736  110.6459 C   0  0  0  0  0  0  0  0  0  0  0  0
  -11.0438  204.7205  109.6734 N   0  0  0  0  0  0  0  0  0  0  0  0
  -10.2233  205.8039  109.5990 C   0  0  0  0  0  0  0  0  0  0  0  0
  -11.2159  202.7173  111.0986 C   0  0  0  0  0  0  0  0  0  0  0  0
   -8.5231  203.9292  112.1802 C   0  0  0  0  0  0  0  0  0  0  0  0
   -8.6068  204.6556  113.5246 C   0  0  0  0  0  0  0  0  0  0  0  0
   -7.0792  203.7509  111.7104 C   0  0  0  0  0  0  0  0  0  0  0  0
   -7.7869  208.9589  114.6620 C   0  0  0  0  0  0  0  0  0  0  0  0
   -8.6478  209.6851  115.4896 C   0  0  0  0  0  0  0  0  0  0  0  0
   -8.8775  209.3000  116.8158 C   0  0  0  0  0  0  0  0  0  0  0  0
   -8.2634  208.1670  117.3563 C   0  0  0  0  0  0  0  0  0  0  0  0
   -7.3988  207.4394  116.5345 C   0  0  0  0  0  0  0  0  0  0  0  0
   -7.1648  207.8292  115.2091 C   0  0  0  0  0  0  0  0  0  0  0  0
   -8.5203  207.7683  118.6700 N   0  0  0  0  0  0  0  0  0  0  0  0
   -8.0428  206.6785  119.4533 C   0  0  0  0  0  0  0  0  0  0  0  0
   -9.0623  207.0647  120.5341 C   0  0  0  0  0  0  0  0  0  0  0  0
   -9.3379  208.3218  119.6970 C   0  0  0  0  0  0  0  0  0  0  0  0
  -10.1901  206.1416  120.7997 N   0  0  0  0  0  0  0  0  0  0  0  0
  -10.6792  205.5823  121.9482 C   0  0  0  0  0  0  0  0  0  0  0  0
  -10.0500  205.8870  123.2768 C   0  0  0  0  0  0  0  0  0  0  0  0
  -11.6460  204.8209  121.8710 O   0  0  0  0  0  0  0  0  0  0  0  0
  -10.7378  205.8338  120.0008 H   0  0  0  0  0  0  0  0  0  0  0  0
  3  4  1  0  0  0
  3  8  2  0  0  0
  3  9  1  0  0  0
  4  5  2  0  0  0
  4 10  1  0  0  0
  5  6  1  0  0  0
  6  7  2  0  0  0
  6  1  1  0  0  0
  7  8  1  0  0  0
  1 19  1  0  0  0
  1  2  1  0  0  0
 19 20  1  0  0  0
 19 24  2  0  0  0
 20 21  2  0  0  0
 21 22  1  0  0  0
 22 23  2  0  0  0
 22 25  1  0  0  0
 23 24  1  0  0  0
 10 11  1  0  0  0
 10 14  2  0  0  0
 11 12  1  0  0  0
 11 16  1  0  0  0
 12 13  2  0  0  0
 12 15  1  0  0  0
 13 14  1  0  0  0
 16 17  1  0  0  0
 16 18  1  0  0  0
 25 26  1  0  0  0
 25 28  1  0  0  0
 26 27  1  0  0  0
 27 28  1  0  0  0
 27 29  1  0  0  0
 29 30  1  0  0  0
 29 33  1  0  0  0
 30 31  1  0  0  0
 30 32  2  0  0  0
M  END
> <minimizedAffinity>
0.00000

$$$$
BDB50263147


 33 36  0  0  0  0  0  0  0  0999 V2000
  -17.4453  199.2992  116.8217 N   0  0  0  0  0  0  0  0  0  0  0  0
  -17.6851  198.3189  116.7623 H   0  0  0  0  0  0  0  0  0  0  0  0
  -15.4074  200.4678  113.4501 C   0  0  0  0  0  0  0  0  0  0  0  0
  -14.9188  200.7594  114.7035 C   0  0  0  0  0  0  0  0  0  0  0  0
  -15.5443  200.3599  115.8307 N   0  0  0  0  0  0  0  0  0  0  0  0
  -16.7019  199.6817  115.7059 C   0  0  0  0  0  0  0  0  0  0  0  0
  -17.2512  199.3739  114.5158 N   0  0  0  0  0  0  0  0  0  0  0  0
  -16.5865  199.7691  113.4102 C   0  0  0  0  0  0  0  0  0  0  0  0
  -14.7905  200.8390  112.3218 F   0  0  0  0  0  0  0  0  0  0  0  0
  -13.6582  201.4661  114.9100 C   0  0  0  0  0  0  0  0  0  0  0  0
  -13.4786  202.7991  115.2735 N   0  0  0  0  0  0  0  0  0  0  0  0
  -12.1146  202.9969  115.4322 C   0  0  0  0  0  0  0  0  0  0  0  0
  -11.4383  201.9175  115.0996 N   0  0  0  0  0  0  0  0  0  0  0  0
  -12.3708  200.9806  114.7752 C   0  0  0  0  0  0  0  0  0  0  0  0
  -11.4658  204.2414  115.9195 C   0  0  0  0  0  0  0  0  0  0  0  0
  -14.5401  203.7977  115.4279 C   0  0  0  0  0  0  0  0  0  0  0  0
  -15.3902  203.5517  116.6763 C   0  0  0  0  0  0  0  0  0  0  0  0
  -15.3965  203.9879  114.1757 C   0  0  0  0  0  0  0  0  0  0  0  0
  -17.8950  200.0030  117.9449 C   0  0  0  0  0  0  0  0  0  0  0  0
  -17.8512  199.4904  119.2445 C   0  0  0  0  0  0  0  0  0  0  0  0
  -18.2507  200.2606  120.3431 C   0  0  0  0  0  0  0  0  0  0  0  0
  -18.6962  201.5752  120.1809 C   0  0  0  0  0  0  0  0  0  0  0  0
  -18.7456  202.0914  118.8834 C   0  0  0  0  0  0  0  0  0  0  0  0
  -18.3513  201.3177  117.7838 C   0  0  0  0  0  0  0  0  0  0  0  0
  -19.0635  202.3505  121.2829 N   0  0  0  0  0  0  0  0  0  0  0  0
  -19.5350  203.6896  121.4004 C   0  0  0  0  0  0  0  0  0  0  0  0
  -19.4024  203.5570  122.9240 C   0  0  0  0  0  0  0  0  0  0  0  0
  -19.1130  202.0694  122.6787 C   0  0  0  0  0  0  0  0  0  0  0  0
  -18.3695  204.3648  123.6135 N   0  0  0  0  0  0  0  0  0  0  0  0
  -18.4173  205.2059  124.6912 C   0  0  0  0  0  0  0  0  0  0  0  0
  -19.7069  205.4408  125.4228 C   0  0  0  0  0  0  0  0  0  0  0  0
  -17.3805  205.7693  125.0490 O   0  0  0  0  0  0  0  0  0  0  0  0
  -17.4220  204.3186  123.2485 H   0  0  0  0  0  0  0  0  0  0  0  0
  3  4  1  0  0  0
  3  8  2  0  0  0
  3  9  1  0  0  0
  4  5  2  0  0  0
  4 10  1  0  0  0
  5  6  1  0  0  0
  6  7  2  0  0  0
  6  1  1  0  0  0
  7  8  1  0  0  0
  1 19  1  0  0  0
  1  2  1  0  0  0
 19 20  1  0  0  0
 19 24  2  0  0  0
 20 21  2  0  0  0
 21 22  1  0  0  0
 22 23  2  0  0  0
 22 25  1  0  0  0
 23 24  1  0  0  0
 10 11  1  0  0  0
 10 14  2  0  0  0
 11 12  1  0  0  0
 11 16  1  0  0  0
 12 13  2  0  0  0
 12 15  1  0  0  0
 13 14  1  0  0  0
 16 17  1  0  0  0
 16 18  1  0  0  0
 25 26  1  0  0  0
 25 28  1  0  0  0
 26 27  1  0  0  0
 27 28  1  0  0  0
 27 29  1  0  0  0
 29 30  1  0  0  0
 29 33  1  0  0  0
 30 31  1  0  0  0
 30 32  2  0  0  0
M  END
> <minimizedAffinity>
0.00005

$$$$
BDB50263147


 33 36  0  0  0  0  0  0  0  0999 V2000
   -9.6698  200.1893  110.1911 N   0  0  0  0  0  0  0  0  0  0  0  0
   -9.0652  199.5391  109.7076 H   0  0  0  0  0  0  0  0  0  0  0  0
  -12.0212  202.2128  107.4960 C   0  0  0  0  0  0  0  0  0  0  0  0
  -11.3083  202.8931  108.4572 C   0  0  0  0  0  0  0  0  0  0  0  0
  -10.4995  202.2626  109.3345 N   0  0  0  0  0  0  0  0  0  0  0  0
  -10.4246  200.9187  109.2734 C   0  0  0  0  0  0  0  0  0  0  0  0
  -11.1041  200.1828  108.3736 N   0  0  0  0  0  0  0  0  0  0  0  0
  -11.8848  200.8484  107.4974 C   0  0  0  0  0  0  0  0  0  0  0  0
  -12.8127  202.8231  106.6059 F   0  0  0  0  0  0  0  0  0  0  0  0
  -11.3228  204.3493  108.5617 C   0  0  0  0  0  0  0  0  0  0  0  0
  -12.0103  205.1299  109.4885 N   0  0  0  0  0  0  0  0  0  0  0  0
  -11.6551  206.4499  109.2511 C   0  0  0  0  0  0  0  0  0  0  0  0
  -10.8814  206.5481  108.1905 N   0  0  0  0  0  0  0  0  0  0  0  0
  -10.6773  205.2729  107.7607 C   0  0  0  0  0  0  0  0  0  0  0  0
  -12.0640  207.6221  110.0671 C   0  0  0  0  0  0  0  0  0  0  0  0
  -12.9495  204.6357  110.4992 C   0  0  0  0  0  0  0  0  0  0  0  0
  -12.2425  203.8832  111.6287 C   0  0  0  0  0  0  0  0  0  0  0  0
  -14.1186  203.8391  109.9194 C   0  0  0  0  0  0  0  0  0  0  0  0
   -9.6131  200.1999  111.5896 C   0  0  0  0  0  0  0  0  0  0  0  0
   -8.4194  200.1318  112.3134 C   0  0  0  0  0  0  0  0  0  0  0  0
   -8.4114  200.2143  113.7109 C   0  0  0  0  0  0  0  0  0  0  0  0
   -9.5967  200.3805  114.4322 C   0  0  0  0  0  0  0  0  0  0  0  0
  -10.7934  200.4454  113.7138 C   0  0  0  0  0  0  0  0  0  0  0  0
  -10.8010  200.3566  112.3154 C   0  0  0  0  0  0  0  0  0  0  0  0
   -9.5809  200.4943  115.8241 N   0  0  0  0  0  0  0  0  0  0  0  0
  -10.6176  200.6712  116.7848 C   0  0  0  0  0  0  0  0  0  0  0  0
   -9.5342  200.8726  117.8535 C   0  0  0  0  0  0  0  0  0  0  0  0
   -8.5223  200.4558  116.7768 C   0  0  0  0  0  0  0  0  0  0  0  0
   -9.3899  202.2140  118.4654 N   0  0  0  0  0  0  0  0  0  0  0  0
   -9.3438  202.6400  119.7644 C   0  0  0  0  0  0  0  0  0  0  0  0
   -9.4356  201.6580  120.8962 C   0  0  0  0  0  0  0  0  0  0  0  0
   -9.2274  203.8470  119.9880 O   0  0  0  0  0  0  0  0  0  0  0  0
   -9.3069  203.0068  117.8349 H   0  0  0  0  0  0  0  0  0  0  0  0
  3  4  1  0  0  0
  3  8  2  0  0  0
  3  9  1  0  0  0
  4  5  2  0  0  0
  4 10  1  0  0  0
  5  6  1  0  0  0
  6  7  2  0  0  0
  6  1  1  0  0  0
  7  8  1  0  0  0
  1 19  1  0  0  0
  1  2  1  0  0  0
 19 20  1  0  0  0
 19 24  2  0  0  0
 20 21  2  0  0  0
 21 22  1  0  0  0
 22 23  2  0  0  0
 22 25  1  0  0  0
 23 24  1  0  0  0
 10 11  1  0  0  0
 10 14  2  0  0  0
 11 12  1  0  0  0
 11 16  1  0  0  0
 12 13  2  0  0  0
 12 15  1  0  0  0
 13 14  1  0  0  0
 16 17  1  0  0  0
 16 18  1  0  0  0
 25 26  1  0  0  0
 25 28  1  0  0  0
 26 27  1  0  0  0
 27 28  1  0  0  0
 27 29  1  0  0  0
 29 30  1  0  0  0
 29 33  1  0  0  0
 30 31  1  0  0  0
 30 32  2  0  0  0
M  END
> <minimizedAffinity>
0.00006

$$$$
