BDB50293153
 OpenBabel07192212403D

 26 29  0  0  0  0  0  0  0  0999 V2000
   -8.3247  204.8907  115.1468 C   0  0  0  0  0  0  0  0  0  0  0  0
   -8.5835  204.6457  116.4800 C   0  0  0  0  0  0  0  0  0  0  0  0
   -9.2804  203.4959  116.7500 C   0  0  0  0  0  0  0  0  0  0  0  0
   -9.6950  202.6421  115.7987 N   0  0  0  0  0  0  0  0  0  0  0  0
   -9.3921  202.9382  114.5245 C   0  0  0  0  0  0  0  0  0  0  0  0
   -8.7062  204.0388  114.1702 N   0  0  0  0  0  0  0  0  0  0  0  0
   -6.1912  207.8831  114.8088 N   0  0  0  0  0  0  0  0  0  0  0  0
   -6.7056  206.8701  115.5059 C   0  0  0  0  0  0  0  0  0  0  0  0
   -7.5825  206.0686  114.7452 C   0  0  0  0  0  0  0  0  0  0  0  0
   -6.7067  207.7217  113.5756 N   0  0  0  0  0  0  0  0  0  0  0  0
   -7.5466  206.6241  113.4810 C   0  0  0  0  0  0  0  0  0  0  0  0
   -8.1037  206.3410  112.2104 C   0  0  0  0  0  0  0  0  0  0  0  0
   -7.8218  207.1506  111.1830 C   0  0  0  0  0  0  0  0  0  0  0  0
   -6.9274  208.3000  111.4558 C   0  0  0  0  0  0  0  0  0  0  0  0
   -6.3771  208.5931  112.5901 N   0  0  0  0  0  0  0  0  0  0  0  0
   -9.7722  202.1142  113.4645 N   0  0  0  0  0  0  0  0  0  0  0  0
  -10.2214  201.2853  113.8298 H   0  0  0  0  0  0  0  0  0  0  0  0
   -9.6540  202.2112  112.0716 C   0  0  0  0  0  0  0  0  0  0  0  0
  -10.1163  203.3015  111.3244 C   0  0  0  0  0  0  0  0  0  0  0  0
   -9.9665  203.3257  109.9295 C   0  0  0  0  0  0  0  0  0  0  0  0
   -9.3552  202.2658  109.2533 C   0  0  0  0  0  0  0  0  0  0  0  0
   -8.8920  201.1768  109.9846 C   0  0  0  0  0  0  0  0  0  0  0  0
   -9.0419  201.1535  111.3752 C   0  0  0  0  0  0  0  0  0  0  0  0
  -10.4572  204.4792  109.1699 N   0  3  0  0  0  0  0  0  0  0  0  0
  -10.7106  204.3169  107.9682 O   0  5  0  0  0  0  0  0  0  0  0  0
  -10.5919  205.5519  109.7757 O   0  0  0  0  0  0  0  0  0  0  0  0
  1  2  1  0  0  0  0
  1  6  2  0  0  0  0
  2  3  2  0  0  0  0
  3  4  1  0  0  0  0
  4  5  2  0  0  0  0
  5  6  1  0  0  0  0
  5 16  1  0  0  0  0
  7  8  2  0  0  0  0
  7 10  1  0  0  0  0
  8  9  1  0  0  0  0
  9 11  2  0  0  0  0
  9  1  1  0  0  0  0
 10 11  1  0  0  0  0
 10 15  1  0  0  0  0
 11 12  1  0  0  0  0
 12 13  2  0  0  0  0
 13 14  1  0  0  0  0
 14 15  2  0  0  0  0
 16 18  1  0  0  0  0
 16 17  1  0  0  0  0
 18 19  1  0  0  0  0
 18 23  2  0  0  0  0
 19 20  2  0  0  0  0
 20 21  1  0  0  0  0
 20 24  1  0  0  0  0
 21 22  2  0  0  0  0
 22 23  1  0  0  0  0
 24 25  1  0  0  0  0
 24 26  2  0  0  0  0
M  CHG  2  24   1  25  -1
M  END
>  <minimizedAffinity>
-0.00007

$$$$
