ZINC00023841
 OpenBabel07192212403D

 27 30  0  0  0  0  0  0  0  0999 V2000
  -14.3520  204.7722  113.4324 C   0  0  0  0  0  0  0  0  0  0  0  0
  -14.8205  204.5143  114.7328 C   0  0  0  0  0  0  0  0  0  0  0  0
  -16.0782  204.6593  115.3654 C   0  0  0  0  0  0  0  0  0  0  0  0
  -15.9643  204.2674  116.6009 N   0  0  0  0  0  0  0  0  0  0  0  0
  -14.6514  203.8493  116.8456 N   0  0  0  0  0  0  0  0  0  0  0  0
  -14.2992  203.5023  117.7148 H   0  0  0  0  0  0  0  0  0  0  0  0
  -13.9313  203.9977  115.6933 C   0  0  2  0  0  0  0  0  0  0  0  0
  -12.1890  203.9796  114.1734 C   0  0  0  0  0  0  0  0  0  0  0  0
  -13.0024  204.4986  113.1552 C   0  0  0  0  0  0  0  0  0  0  0  0
  -12.6112  203.7260  115.4333 N   0  0  0  0  0  0  0  0  0  0  0  0
  -11.9807  203.3526  116.1526 H   0  0  0  0  0  0  0  0  0  0  0  0
  -12.4511  204.7474  111.8133 C   0  0  0  0  0  0  0  0  0  0  0  0
  -12.4679  203.8661  110.9757 O   0  0  0  0  0  0  0  0  0  0  0  0
  -11.8776  206.0692  111.4837 C   0  0  0  0  0  0  0  0  0  0  0  0
  -11.6484  207.0064  112.4931 C   0  0  0  0  0  0  0  0  0  0  0  0
  -11.1189  208.2402  112.1778 C   0  0  0  0  0  0  0  0  0  0  0  0
  -10.8138  208.5496  110.8644 C   0  0  0  0  0  0  0  0  0  0  0  0
  -11.0392  207.6265  109.8581 C   0  0  0  0  0  0  0  0  0  0  0  0
  -11.5681  206.3894  110.1596 C   0  0  0  0  0  0  0  0  0  0  0  0
  -15.1741  205.2684  112.4792 O   0  0  0  0  0  0  0  0  0  0  0  0
  -15.5629  206.6373  112.6069 C   0  0  0  0  0  0  0  0  0  0  0  0
  -14.4841  208.7615  109.0616 C   0  0  0  0  0  0  0  0  0  0  0  0
  -14.9211  207.4524  108.9771 C   0  0  0  0  0  0  0  0  0  0  0  0
  -15.2697  206.7650  110.1243 C   0  0  0  0  0  0  0  0  0  0  0  0
  -15.1824  207.3870  111.3561 C   0  0  0  0  0  0  0  0  0  0  0  0
  -14.7503  208.6974  111.4400 C   0  0  0  0  0  0  0  0  0  0  0  0
  -14.3958  209.3832  110.2932 C   0  0  0  0  0  0  0  0  0  0  0  0
  1  2  2  0  0  0  0
  1  9  1  0  0  0  0
  2  3  1  0  0  0  0
  3  4  2  0  0  0  0
  4  5  1  0  0  0  0
  5  6  1  0  0  0  0
  5  7  1  0  0  0  0
  7  2  1  1  0  0  0
  7 10  1  0  0  0  0
  8  9  2  0  0  0  0
  8 10  1  0  0  0  0
  9 12  1  0  0  0  0
 10 11  1  0  0  0  0
 12 13  2  0  0  0  0
 12 14  1  0  0  0  0
 14 15  2  0  0  0  0
 14 19  1  0  0  0  0
 15 16  1  0  0  0  0
 16 17  2  0  0  0  0
 17 18  1  0  0  0  0
 18 19  2  0  0  0  0
 20  1  1  0  0  0  0
 21 20  1  0  0  0  0
 22 23  2  0  0  0  0
 22 27  1  0  0  0  0
 23 24  1  0  0  0  0
 24 25  2  0  0  0  0
 25 26  1  0  0  0  0
 25 21  1  0  0  0  0
 26 27  2  0  0  0  0
M  END
>  <minimizedAffinity>
-0.00035

$$$$
