ZINC00003491
 OpenBabel07192212403D

 23 26  0  0  0  0  0  0  0  0999 V2000
  -15.2489  203.7253  113.4735 C   0  0  0  0  0  0  0  0  0  0  0  0
  -14.3296  202.9228  114.1240 C   0  0  0  0  0  0  0  0  0  0  0  0
  -14.2407  202.8518  115.5247 C   0  0  0  0  0  0  0  0  0  0  0  0
  -15.1043  203.6275  116.3117 C   0  0  0  0  0  0  0  0  0  0  0  0
  -16.0256  204.4385  115.6301 C   0  0  0  0  0  0  0  0  0  0  0  0
  -16.1315  204.5172  114.2425 C   0  0  0  0  0  0  0  0  0  0  0  0
  -17.1088  205.3809  113.7236 C   0  0  0  0  0  0  0  0  0  0  0  0
  -17.8963  206.0922  114.6105 C   0  0  0  0  0  0  0  0  0  0  0  0
  -17.7645  205.9895  115.9922 C   0  0  0  0  0  0  0  0  0  0  0  0
  -16.8100  205.1455  116.5349 C   0  0  0  0  0  0  0  0  0  0  0  0
  -16.3848  204.7808  117.8064 N   0  0  0  0  0  0  0  0  0  0  0  0
  -15.3714  203.8797  117.7219 C   0  0  0  0  0  0  0  0  0  0  0  0
  -14.7873  203.3702  118.6626 O   0  0  0  0  0  0  0  0  0  0  0  0
  -17.2767  205.5145  112.3891 F   0  0  0  0  0  0  0  0  0  0  0  0
  -16.7576  205.1218  118.6349 H   0  0  0  0  0  0  0  0  0  0  0  0
  -13.2433  201.9739  116.1612 C   0  0  0  0  0  0  0  0  0  0  0  0
  -11.9342  201.8430  115.7924 C   0  0  0  0  0  0  0  0  0  0  0  0
  -11.3492  200.9097  116.6584 C   0  0  0  0  0  0  0  0  0  0  0  0
  -12.3027  200.4973  117.5255 C   0  0  0  0  0  0  0  0  0  0  0  0
  -13.4637  201.1415  117.2305 N   0  0  0  0  0  0  0  0  0  0  0  0
  -14.3069  201.0301  117.6976 H   0  0  0  0  0  0  0  0  0  0  0  0
  -14.1482  204.2605  111.4389 C   0  0  0  0  0  0  0  0  0  0  0  0
  -15.2986  203.7553  112.1201 O   0  0  0  0  0  0  0  0  0  0  0  0
  1  2  2  0  0  0  0
  1  6  1  0  0  0  0
  2  3  1  0  0  0  0
  3  4  2  0  0  0  0
  3 16  1  0  0  0  0
  4  5  1  0  0  0  0
  4 12  1  0  0  0  0
  5  6  2  0  0  0  0
  5 10  1  0  0  0  0
  6  7  1  0  0  0  0
  7  8  2  0  0  0  0
  7 14  1  0  0  0  0
  8  9  1  0  0  0  0
  9 10  2  0  0  0  0
 10 11  1  0  0  0  0
 11 12  1  0  0  0  0
 11 15  1  0  0  0  0
 12 13  2  0  0  0  0
 16 17  2  0  0  0  0
 16 20  1  0  0  0  0
 17 18  1  0  0  0  0
 18 19  2  0  0  0  0
 19 20  1  0  0  0  0
 20 21  1  0  0  0  0
 22 23  1  0  0  0  0
 23  1  1  0  0  0  0
M  END
>  <minimizedAffinity>
-0.00000

$$$$
