ZINC00002112


 26 28  0  0  0  0  0  0  0  0999 V2000
  -12.9060  203.9543  120.6626 N   0  0  0  0  0  0  0  0  0  0  0  0
  -13.1939  204.7822  121.0781 H   0  0  0  0  0  0  0  0  0  0  0  0
   -8.5029  202.1425  122.1532 C   0  0  0  0  0  0  0  0  0  0  0  0
   -9.5795  202.7948  121.3232 C   0  0  0  0  0  0  0  0  0  0  0  0
  -10.9114  202.9736  121.7081 C   0  0  0  0  0  0  0  0  0  0  0  0
  -11.5615  203.5952  120.6858 C   0  0  0  0  0  0  0  0  0  0  0  0
  -10.6541  203.8055  119.6934 N   0  0  0  0  0  0  0  0  0  0  0  0
   -9.4231  203.2927  120.1240 N   0  0  0  0  0  0  0  0  0  0  0  0
  -10.9060  204.4244  118.4619 C   0  0  0  0  0  0  0  0  0  0  0  0
  -10.9366  203.6696  117.2967 C   0  0  0  0  0  0  0  0  0  0  0  0
  -11.1901  204.2821  116.0853 C   0  0  0  0  0  0  0  0  0  0  0  0
  -11.4034  205.6474  116.0300 C   0  0  0  0  0  0  0  0  0  0  0  0
  -11.3686  206.4025  117.1874 C   0  0  0  0  0  0  0  0  0  0  0  0
  -11.1202  205.7953  118.4034 C   0  0  0  0  0  0  0  0  0  0  0  0
  -14.0137  202.9696  119.9249 S   0  0  0  0  0  0  0  0  0  0  0  0
  -15.1838  202.9996  120.7304 O   0  0  0  0  0  0  0  0  0  0  0  0
  -13.3366  201.7607  119.6105 O   0  0  0  0  0  0  0  0  0  0  0  0
  -14.4395  203.7216  118.3897 C   0  0  0  0  0  0  0  0  0  0  0  0
  -14.5098  202.9538  117.2412 C   0  0  0  0  0  0  0  0  0  0  0  0
  -14.8384  203.5418  116.0357 C   0  0  0  0  0  0  0  0  0  0  0  0
  -15.0973  204.9044  115.9762 C   0  0  0  0  0  0  0  0  0  0  0  0
  -15.0264  205.6725  117.1314 C   0  0  0  0  0  0  0  0  0  0  0  0
  -14.6978  205.0794  118.3349 C   0  0  0  0  0  0  0  0  0  0  0  0
  -15.4298  205.5019  114.7586 N   0  0  0  0  0  0  0  0  0  0  0  0
  -15.6121  206.4544  114.7185 H   0  0  0  0  0  0  0  0  0  0  0  0
  -15.4799  204.9648  113.9529 H   0  0  0  0  0  0  0  0  0  0  0  0
  3  4  1  0  0  0
  4  5  1  0  0  0
  4  8  2  0  0  0
  5  6  2  0  0  0
  6  7  1  0  0  0
  6  1  1  0  0  0
  7  8  1  0  0  0
  7  9  1  0  0  0
  9 10  2  0  0  0
  9 14  1  0  0  0
 10 11  1  0  0  0
 11 12  2  0  0  0
 12 13  1  0  0  0
 13 14  2  0  0  0
  1 15  1  0  0  0
  1  2  1  0  0  0
 15 16  2  0  0  0
 15 17  2  0  0  0
 15 18  1  0  0  0
 18 19  2  0  0  0
 18 23  1  0  0  0
 19 20  1  0  0  0
 20 21  2  0  0  0
 21 22  1  0  0  0
 21 24  1  0  0  0
 22 23  2  0  0  0
 24 25  1  0  0  0
 24 26  1  0  0  0
M  END
> <minimizedAffinity>
-0.00039

$$$$
ZINC00002112


 26 28  0  0  0  0  0  0  0  0999 V2000
  -11.5312  201.8127  113.2196 N   0  0  0  0  0  0  0  0  0  0  0  0
  -11.2427  202.7047  113.4684 H   0  0  0  0  0  0  0  0  0  0  0  0
   -9.8520  200.0792  108.8531 C   0  0  0  0  0  0  0  0  0  0  0  0
  -10.7545  200.6389  109.9234 C   0  0  0  0  0  0  0  0  0  0  0  0
  -10.3802  200.9258  111.2393 C   0  0  0  0  0  0  0  0  0  0  0  0
  -11.4749  201.4093  111.8887 C   0  0  0  0  0  0  0  0  0  0  0  0
  -12.5022  201.4307  110.9962 N   0  0  0  0  0  0  0  0  0  0  0  0
  -12.0182  200.9420  109.7754 N   0  0  0  0  0  0  0  0  0  0  0  0
  -13.8098  201.8642  111.2525 C   0  0  0  0  0  0  0  0  0  0  0  0
  -14.8451  200.9426  111.3357 C   0  0  0  0  0  0  0  0  0  0  0  0
  -16.1318  201.3728  111.5934 C   0  0  0  0  0  0  0  0  0  0  0  0
  -16.3918  202.7211  111.7586 C   0  0  0  0  0  0  0  0  0  0  0  0
  -15.3643  203.6416  111.6714 C   0  0  0  0  0  0  0  0  0  0  0  0
  -14.0738  203.2175  111.4185 C   0  0  0  0  0  0  0  0  0  0  0  0
  -12.0917  200.7709  114.3778 S   0  0  0  0  0  0  0  0  0  0  0  0
  -11.2815  200.9687  115.5283 O   0  0  0  0  0  0  0  0  0  0  0  0
  -12.2283  199.5029  113.7517 O   0  0  0  0  0  0  0  0  0  0  0  0
  -13.7168  201.2964  114.8098 C   0  0  0  0  0  0  0  0  0  0  0  0
  -14.7331  200.3660  114.9326 C   0  0  0  0  0  0  0  0  0  0  0  0
  -16.0088  200.7759  115.2661 C   0  0  0  0  0  0  0  0  0  0  0  0
  -16.2719  202.1225  115.4771 C   0  0  0  0  0  0  0  0  0  0  0  0
  -15.2492  203.0543  115.3534 C   0  0  0  0  0  0  0  0  0  0  0  0
  -13.9745  202.6390  115.0202 C   0  0  0  0  0  0  0  0  0  0  0  0
  -17.5611  202.5402  115.8143 N   0  0  0  0  0  0  0  0  0  0  0  0
  -17.7435  203.4818  115.9632 H   0  0  0  0  0  0  0  0  0  0  0  0
  -18.2743  201.8889  115.9013 H   0  0  0  0  0  0  0  0  0  0  0  0
  3  4  1  0  0  0
  4  5  1  0  0  0
  4  8  2  0  0  0
  5  6  2  0  0  0
  6  7  1  0  0  0
  6  1  1  0  0  0
  7  8  1  0  0  0
  7  9  1  0  0  0
  9 10  2  0  0  0
  9 14  1  0  0  0
 10 11  1  0  0  0
 11 12  2  0  0  0
 12 13  1  0  0  0
 13 14  2  0  0  0
  1 15  1  0  0  0
  1  2  1  0  0  0
 15 16  2  0  0  0
 15 17  2  0  0  0
 15 18  1  0  0  0
 18 19  2  0  0  0
 18 23  1  0  0  0
 19 20  1  0  0  0
 20 21  2  0  0  0
 21 22  1  0  0  0
 21 24  1  0  0  0
 22 23  2  0  0  0
 24 25  1  0  0  0
 24 26  1  0  0  0
M  END
> <minimizedAffinity>
-0.00023

$$$$
ZINC00002112


 26 28  0  0  0  0  0  0  0  0999 V2000
  -13.2604  208.3664  114.4452 N   0  0  0  0  0  0  0  0  0  0  0  0
  -13.5579  208.0525  115.3134 H   0  0  0  0  0  0  0  0  0  0  0  0
  -16.3735  207.5925  110.6241 C   0  0  0  0  0  0  0  0  0  0  0  0
  -15.2018  207.4785  111.5662 C   0  0  0  0  0  0  0  0  0  0  0  0
  -14.9974  208.2522  112.7124 C   0  0  0  0  0  0  0  0  0  0  0  0
  -13.8301  207.8488  113.2856 C   0  0  0  0  0  0  0  0  0  0  0  0
  -13.3257  206.8432  112.5196 N   0  0  0  0  0  0  0  0  0  0  0  0
  -14.2082  206.6359  111.4510 N   0  0  0  0  0  0  0  0  0  0  0  0
  -12.1368  206.1409  112.7573 C   0  0  0  0  0  0  0  0  0  0  0  0
  -11.0301  206.3504  111.9452 C   0  0  0  0  0  0  0  0  0  0  0  0
   -9.8584  205.6602  112.1854 C   0  0  0  0  0  0  0  0  0  0  0  0
   -9.7891  204.7535  113.2275 C   0  0  0  0  0  0  0  0  0  0  0  0
  -10.8906  204.5389  114.0348 C   0  0  0  0  0  0  0  0  0  0  0  0
  -12.0646  205.2297  113.8028 C   0  0  0  0  0  0  0  0  0  0  0  0
  -12.0741  209.5168  114.3430 S   0  0  0  0  0  0  0  0  0  0  0  0
  -12.3110  210.4392  115.3975 O   0  0  0  0  0  0  0  0  0  0  0  0
  -12.0125  209.9168  112.9811 O   0  0  0  0  0  0  0  0  0  0  0  0
  -10.5439  208.7217  114.7035 C   0  0  0  0  0  0  0  0  0  0  0  0
   -9.4349  208.9693  113.9147 C   0  0  0  0  0  0  0  0  0  0  0  0
   -8.2357  208.3435  114.1921 C   0  0  0  0  0  0  0  0  0  0  0  0
   -8.1432  207.4644  115.2625 C   0  0  0  0  0  0  0  0  0  0  0  0
   -9.2586  207.2182  116.0530 C   0  0  0  0  0  0  0  0  0  0  0  0
  -10.4557  207.8472  115.7717 C   0  0  0  0  0  0  0  0  0  0  0  0
   -6.9319  206.8299  115.5455 N   0  0  0  0  0  0  0  0  0  0  0  0
   -6.8680  206.2166  116.2952 H   0  0  0  0  0  0  0  0  0  0  0  0
   -6.1536  207.0030  114.9937 H   0  0  0  0  0  0  0  0  0  0  0  0
  3  4  1  0  0  0
  4  5  1  0  0  0
  4  8  2  0  0  0
  5  6  2  0  0  0
  6  7  1  0  0  0
  6  1  1  0  0  0
  7  8  1  0  0  0
  7  9  1  0  0  0
  9 10  2  0  0  0
  9 14  1  0  0  0
 10 11  1  0  0  0
 11 12  2  0  0  0
 12 13  1  0  0  0
 13 14  2  0  0  0
  1 15  1  0  0  0
  1  2  1  0  0  0
 15 16  2  0  0  0
 15 17  2  0  0  0
 15 18  1  0  0  0
 18 19  2  0  0  0
 18 23  1  0  0  0
 19 20  1  0  0  0
 20 21  2  0  0  0
 21 22  1  0  0  0
 21 24  1  0  0  0
 22 23  2  0  0  0
 24 25  1  0  0  0
 24 26  1  0  0  0
M  END
> <minimizedAffinity>
-0.00013

$$$$
