ZINC00011880
 OpenBabel07192212403D

 26 28  0  0  0  0  0  0  0  0999 V2000
   -8.0626  207.9124  112.3274 C   0  0  0  0  0  0  0  0  0  0  0  0
   -8.6418  206.8070  113.2132 C   0  0  0  0  0  0  0  0  0  0  0  0
  -10.0836  206.5161  112.7836 C   0  0  1  0  0  0  0  0  0  0  0  0
  -10.5996  205.3117  113.5913 C   0  0  1  0  0  0  0  0  0  0  0  0
  -10.1885  205.5151  115.0131 C   0  0  0  0  0  0  0  0  0  0  0  0
   -9.2648  206.4056  115.4763 C   0  0  0  0  0  0  0  0  0  0  0  0
   -9.0455  206.4202  116.8517 C   0  0  0  0  0  0  0  0  0  0  0  0
   -9.7356  205.5735  117.6541 C   0  0  0  0  0  0  0  0  0  0  0  0
  -10.7539  204.6952  116.4765 S   0  0  0  0  0  0  0  0  0  0  0  0
   -8.6092  207.2285  114.5788 O   0  0  0  0  0  0  0  0  0  0  0  0
  -10.9027  207.6574  113.0482 O   0  0  0  0  0  0  0  0  0  0  0  0
   -7.8030  205.5379  113.0528 C   0  0  0  0  0  0  0  0  0  0  0  0
  -11.8328  207.5372  112.8148 H   0  0  0  0  0  0  0  0  0  0  0  0
  -12.0595  205.2401  113.5007 N   0  0  0  0  0  0  0  0  0  0  0  0
  -12.6543  204.1090  113.0714 C   0  0  0  0  0  0  0  0  0  0  0  0
  -11.9777  203.1477  112.7601 O   0  0  0  0  0  0  0  0  0  0  0  0
  -12.5996  206.0072  113.7485 H   0  0  0  0  0  0  0  0  0  0  0  0
  -14.1280  204.0366  112.9797 C   0  0  0  0  0  0  0  0  0  0  0  0
  -14.7381  202.9704  112.3183 C   0  0  0  0  0  0  0  0  0  0  0  0
  -16.1138  202.9085  112.2360 C   0  0  0  0  0  0  0  0  0  0  0  0
  -16.8889  203.9024  112.8070 C   0  0  0  0  0  0  0  0  0  0  0  0
  -16.2905  204.9658  113.4604 C   0  0  0  0  0  0  0  0  0  0  0  0
  -14.9154  205.0360  113.5549 C   0  0  0  0  0  0  0  0  0  0  0  0
  -18.3644  203.8312  112.7149 N   0  0  0  0  0  0  0  0  0  0  0  0
  -19.0479  204.7063  113.2158 O   0  0  0  0  0  0  0  0  0  0  0  0
  -18.8944  202.9017  112.1341 O   0  0  0  0  0  0  0  0  0  0  0  0
  1  2  1  0  0  0  0
  2  3  1  0  0  0  0
  2 10  1  0  0  0  0
  2 12  1  0  0  0  0
  3  4  1  0  0  0  0
  3 11  1  1  0  0  0
  4  5  1  0  0  0  0
  4 14  1  1  0  0  0
  5  6  2  0  0  0  0
  5  9  1  0  0  0  0
  6  7  1  0  0  0  0
  6 10  1  0  0  0  0
  7  8  2  0  0  0  0
  8  9  1  0  0  0  0
 11 13  1  0  0  0  0
 14 15  1  0  0  0  0
 14 17  1  0  0  0  0
 15 16  2  0  0  0  0
 15 18  1  0  0  0  0
 18 19  2  0  0  0  0
 18 23  1  0  0  0  0
 19 20  1  0  0  0  0
 20 21  2  0  0  0  0
 21 22  1  0  0  0  0
 21 24  1  0  0  0  0
 22 23  2  0  0  0  0
 24 25  2  0  0  0  0
 24 26  2  0  0  0  0
M  END
>  <minimizedAffinity>
-0.00005

$$$$
