ZINC00023543


 21 23  0  0  0  0  0  0  0  0999 V2000
  -14.8055  203.5687  115.1268 C   0  0  0  0  0  0  0  0  0  0  0  0
  -14.2932  202.3282  114.8822 N   0  0  0  0  0  0  0  0  0  0  0  0
  -14.2264  201.5761  115.5377 H   0  0  0  0  0  0  0  0  0  0  0  0
  -13.8852  202.3029  113.5725 C   0  0  0  0  0  0  0  0  0  0  0  0
  -14.1756  203.5757  113.0512 C   0  0  0  0  0  0  0  0  0  0  0  0
  -14.7366  204.2983  114.0523 N   0  0  0  0  0  0  0  0  0  0  0  0
  -13.8587  203.8332  111.7096 C   0  0  0  0  0  0  0  0  0  0  0  0
  -13.2988  202.8676  110.9918 N   0  0  0  0  0  0  0  0  0  0  0  0
  -13.0405  201.6793  111.5237 C   0  0  0  0  0  0  0  0  0  0  0  0
  -13.3237  201.3932  112.7841 N   0  0  0  0  0  0  0  0  0  0  0  0
  -12.4546  200.7050  110.7314 N   0  0  0  0  0  0  0  0  0  0  0  0
  -12.2596  199.8306  111.1030 H   0  0  0  0  0  0  0  0  0  0  0  0
  -12.2404  200.8979  109.8051 H   0  0  0  0  0  0  0  0  0  0  0  0
  -14.1189  205.0429  111.1566 O   0  0  0  0  0  0  0  0  0  0  0  0
  -15.2567  205.1321  110.2978 C   0  0  0  0  0  0  0  0  0  0  0  0
  -16.3095  206.0382  110.9387 C   0  0  0  0  0  0  0  0  0  0  0  0
  -15.6285  207.0067  111.9078 C   0  0  0  0  0  0  0  0  0  0  0  0
  -16.6813  207.9128  112.5488 C   0  0  0  0  0  0  0  0  0  0  0  0
  -17.6947  207.0570  113.3113 C   0  0  0  0  0  0  0  0  0  0  0  0
  -18.3767  206.0892  112.3416 C   0  0  0  0  0  0  0  0  0  0  0  0
  -17.3228  205.1824  111.7012 C   0  0  0  0  0  0  0  0  0  0  0  0
  1  2  1  0  0  0
  1  6  2  0  0  0
  2  3  1  0  0  0
  2  4  1  0  0  0
  4  5  2  0  0  0
  4 10  1  0  0  0
  5  6  1  0  0  0
  5  7  1  0  0  0
  7  8  2  0  0  0
  7 14  1  0  0  0
  8  9  1  0  0  0
  9 10  2  0  0  0
  9 11  1  0  0  0
 11 12  1  0  0  0
 11 13  1  0  0  0
 14 15  1  0  0  0
 15 16  1  0  0  0
 16 17  1  0  0  0
 16 21  1  0  0  0
 17 18  1  0  0  0
 18 19  1  0  0  0
 19 20  1  0  0  0
 20 21  1  0  0  0
M  END
> <minimizedAffinity>
-0.00030

$$$$
ZINC00023543


 21 23  0  0  0  0  0  0  0  0999 V2000
  -16.4405  205.2634  111.5576 C   0  0  0  0  0  0  0  0  0  0  0  0
  -16.1074  203.9543  111.7487 N   0  0  0  0  0  0  0  0  0  0  0  0
  -16.5197  203.3297  112.4118 H   0  0  0  0  0  0  0  0  0  0  0  0
  -15.1018  203.6528  110.8653 C   0  0  0  0  0  0  0  0  0  0  0  0
  -14.8525  204.8334  110.1439 C   0  0  0  0  0  0  0  0  0  0  0  0
  -15.7046  205.7768  110.6161 N   0  0  0  0  0  0  0  0  0  0  0  0
  -13.8567  204.8120  109.1568 C   0  0  0  0  0  0  0  0  0  0  0  0
  -13.1933  203.6820  108.9470 N   0  0  0  0  0  0  0  0  0  0  0  0
  -13.4598  202.5892  109.6517 C   0  0  0  0  0  0  0  0  0  0  0  0
  -14.3911  202.5645  110.5913 N   0  0  0  0  0  0  0  0  0  0  0  0
  -12.7382  201.4346  109.3939 N   0  0  0  0  0  0  0  0  0  0  0  0
  -12.9201  200.6264  109.8984 H   0  0  0  0  0  0  0  0  0  0  0  0
  -12.0519  201.4351  108.7084 H   0  0  0  0  0  0  0  0  0  0  0  0
  -13.5772  205.9220  108.4312 O   0  0  0  0  0  0  0  0  0  0  0  0
  -14.0819  205.9680  107.0957 C   0  0  0  0  0  0  0  0  0  0  0  0
  -15.1318  207.0751  106.9854 C   0  0  0  0  0  0  0  0  0  0  0  0
  -14.8780  208.1296  108.0644 C   0  0  0  0  0  0  0  0  0  0  0  0
  -15.9279  209.2367  107.9541 C   0  0  0  0  0  0  0  0  0  0  0  0
  -17.3227  208.6376  108.1447 C   0  0  0  0  0  0  0  0  0  0  0  0
  -17.5770  207.5838  107.0645 C   0  0  0  0  0  0  0  0  0  0  0  0
  -16.5266  206.4760  107.1760 C   0  0  0  0  0  0  0  0  0  0  0  0
  1  2  1  0  0  0
  1  6  2  0  0  0
  2  3  1  0  0  0
  2  4  1  0  0  0
  4  5  2  0  0  0
  4 10  1  0  0  0
  5  6  1  0  0  0
  5  7  1  0  0  0
  7  8  2  0  0  0
  7 14  1  0  0  0
  8  9  1  0  0  0
  9 10  2  0  0  0
  9 11  1  0  0  0
 11 12  1  0  0  0
 11 13  1  0  0  0
 14 15  1  0  0  0
 15 16  1  0  0  0
 16 17  1  0  0  0
 16 21  1  0  0  0
 17 18  1  0  0  0
 18 19  1  0  0  0
 19 20  1  0  0  0
 20 21  1  0  0  0
M  END
> <minimizedAffinity>
-0.00030

$$$$
ZINC00023543


 21 23  0  0  0  0  0  0  0  0999 V2000
   -9.9970  201.1482  111.6232 C   0  0  0  0  0  0  0  0  0  0  0  0
   -8.9632  200.8575  110.7818 N   0  0  0  0  0  0  0  0  0  0  0  0
   -8.1945  200.2487  110.9774 H   0  0  0  0  0  0  0  0  0  0  0  0
   -9.1712  201.5552  109.6188 C   0  0  0  0  0  0  0  0  0  0  0  0
  -10.3675  202.2698  109.8040 C   0  0  0  0  0  0  0  0  0  0  0  0
  -10.8195  201.9754  111.0482 N   0  0  0  0  0  0  0  0  0  0  0  0
  -10.8273  203.0802  108.7559 C   0  0  0  0  0  0  0  0  0  0  0  0
  -10.1150  203.1388  107.6377 N   0  0  0  0  0  0  0  0  0  0  0  0
   -8.9895  202.4479  107.5045 C   0  0  0  0  0  0  0  0  0  0  0  0
   -8.5199  201.6706  108.4669 N   0  0  0  0  0  0  0  0  0  0  0  0
   -8.2826  202.5437  106.3165 N   0  0  0  0  0  0  0  0  0  0  0  0
   -7.4586  202.0452  106.2012 H   0  0  0  0  0  0  0  0  0  0  0  0
   -8.6126  203.1090  105.6006 H   0  0  0  0  0  0  0  0  0  0  0  0
  -11.9755  203.7891  108.8814 O   0  0  0  0  0  0  0  0  0  0  0  0
  -13.1301  203.2768  108.2147 C   0  0  0  0  0  0  0  0  0  0  0  0
  -14.1680  202.8446  109.2521 C   0  0  0  0  0  0  0  0  0  0  0  0
  -13.9460  203.6211  110.5515 C   0  0  0  0  0  0  0  0  0  0  0  0
  -14.9838  203.1889  111.5889 C   0  0  0  0  0  0  0  0  0  0  0  0
  -14.8404  201.6900  111.8599 C   0  0  0  0  0  0  0  0  0  0  0  0
  -15.0638  200.9132  110.5603 C   0  0  0  0  0  0  0  0  0  0  0  0
  -14.0246  201.3457  109.5231 C   0  0  0  0  0  0  0  0  0  0  0  0
  1  2  1  0  0  0
  1  6  2  0  0  0
  2  3  1  0  0  0
  2  4  1  0  0  0
  4  5  2  0  0  0
  4 10  1  0  0  0
  5  6  1  0  0  0
  5  7  1  0  0  0
  7  8  2  0  0  0
  7 14  1  0  0  0
  8  9  1  0  0  0
  9 10  2  0  0  0
  9 11  1  0  0  0
 11 12  1  0  0  0
 11 13  1  0  0  0
 14 15  1  0  0  0
 15 16  1  0  0  0
 16 17  1  0  0  0
 16 21  1  0  0  0
 17 18  1  0  0  0
 18 19  1  0  0  0
 19 20  1  0  0  0
 20 21  1  0  0  0
M  END
> <minimizedAffinity>
-0.00028

$$$$
