ZINC00006108
 OpenBabel07192212403D

 26 29  0  0  0  0  0  0  0  0999 V2000
  -11.8219  203.5798  117.6656 C   0  0  0  0  0  0  0  0  0  0  0  0
  -11.0955  204.3760  118.4629 N   0  0  0  0  0  0  0  0  0  0  0  0
  -11.0180  203.8443  119.6648 C   0  0  0  0  0  0  0  0  0  0  0  0
  -10.3653  204.2693  120.9101 C   0  0  0  0  0  0  0  0  0  0  0  0
  -10.4793  203.4839  121.9885 C   0  0  0  0  0  0  0  0  0  0  0  0
  -11.1964  202.3070  121.8985 N   0  0  0  0  0  0  0  0  0  0  0  0
  -11.2751  201.7261  122.7082 H   0  0  0  0  0  0  0  0  0  0  0  0
  -11.7900  201.9198  120.7602 C   0  0  0  0  0  0  0  0  0  0  0  0
  -12.4095  200.8733  120.7364 O   0  0  0  0  0  0  0  0  0  0  0  0
  -11.7140  202.6659  119.6473 N   0  0  0  0  0  0  0  0  0  0  0  0
  -12.2185  202.5254  118.3483 N   0  0  0  0  0  0  0  0  0  0  0  0
   -9.8569  203.8252  123.3172 C   0  0  0  0  0  0  0  0  0  0  0  0
   -8.7727  204.8873  123.1475 C   0  0  0  0  0  0  0  0  0  0  0  0
   -9.3606  206.0499  122.3384 C   0  0  0  0  0  0  0  0  0  0  0  0
   -9.6001  205.5639  120.9097 C   0  0  0  0  0  0  0  0  0  0  0  0
  -12.1442  205.1104  115.7798 N   0  0  0  0  0  0  0  0  0  0  0  0
  -12.1289  203.8442  116.2417 C   0  0  0  0  0  0  0  0  0  0  0  0
  -12.3665  202.9200  115.4895 O   0  0  0  0  0  0  0  0  0  0  0  0
  -11.9544  205.8482  116.3805 H   0  0  0  0  0  0  0  0  0  0  0  0
  -12.4481  205.3720  114.3705 C   0  0  0  0  0  0  0  0  0  0  0  0
   -8.8064  205.6302  112.1520 C   0  0  0  0  0  0  0  0  0  0  0  0
   -8.9741  206.3868  113.2970 C   0  0  0  0  0  0  0  0  0  0  0  0
  -10.1525  206.3040  114.0151 C   0  0  0  0  0  0  0  0  0  0  0  0
  -11.1634  205.4629  113.5880 C   0  0  0  0  0  0  0  0  0  0  0  0
  -10.9942  204.7017  112.4462 C   0  0  0  0  0  0  0  0  0  0  0  0
   -9.8178  204.7903  111.7255 C   0  0  0  0  0  0  0  0  0  0  0  0
  1  2  1  0  0  0  0
  1 11  2  0  0  0  0
  2  3  2  0  0  0  0
  3  4  1  0  0  0  0
  3 10  1  0  0  0  0
  4  5  2  0  0  0  0
  4 15  1  0  0  0  0
  5  6  1  0  0  0  0
  5 12  1  0  0  0  0
  6  7  1  0  0  0  0
  6  8  1  0  0  0  0
  8  9  2  0  0  0  0
  8 10  1  0  0  0  0
 10 11  1  0  0  0  0
 12 13  1  0  0  0  0
 13 14  1  0  0  0  0
 14 15  1  0  0  0  0
 16 17  1  0  0  0  0
 16 19  1  0  0  0  0
 17 18  2  0  0  0  0
 17  1  1  0  0  0  0
 20 16  1  0  0  0  0
 21 22  2  0  0  0  0
 21 26  1  0  0  0  0
 22 23  1  0  0  0  0
 23 24  2  0  0  0  0
 24 25  1  0  0  0  0
 24 20  1  0  0  0  0
 25 26  2  0  0  0  0
M  END
>  <minimizedAffinity>
-0.00008

$$$$
