ZINC00011462
 OpenBabel07192212403D

 26 28  0  0  0  0  0  0  0  0999 V2000
  -12.5354  206.2783  115.8063 N   0  0  0  0  0  0  0  0  0  0  0  0
  -11.8114  206.2680  114.6201 C   0  0  0  0  0  0  0  0  0  0  0  0
  -10.8722  207.0024  114.3404 O   0  0  0  0  0  0  0  0  0  0  0  0
  -13.0257  205.4241  116.0285 H   0  0  0  0  0  0  0  0  0  0  0  0
  -12.1687  205.1644  113.6802 C   0  0  0  0  0  0  0  0  0  0  0  0
  -12.1174  205.3647  112.2820 C   0  0  0  0  0  0  0  0  0  0  0  0
  -12.5046  204.3507  111.3956 C   0  0  0  0  0  0  0  0  0  0  0  0
  -12.9375  203.1449  111.9249 C   0  0  0  0  0  0  0  0  0  0  0  0
  -12.9392  202.9453  113.3048 C   0  0  0  0  0  0  0  0  0  0  0  0
  -12.5620  203.9233  114.2038 C   0  0  0  0  0  0  0  0  0  0  0  0
  -13.3558  201.6522  113.5886 N   0  0  0  0  0  0  0  0  0  0  0  0
  -13.6397  200.9318  112.4347 C   0  0  0  0  0  0  0  0  0  0  0  0
  -13.9896  199.7697  112.3934 O   0  0  0  0  0  0  0  0  0  0  0  0
  -13.4559  201.8987  111.2327 C   0  0  0  0  0  0  0  0  0  0  0  0
  -12.4694  201.3231  110.2210 C   0  0  0  0  0  0  0  0  0  0  0  0
  -14.8228  202.1500  110.5915 C   0  0  0  0  0  0  0  0  0  0  0  0
  -13.4113  201.2407  114.5120 H   0  0  0  0  0  0  0  0  0  0  0  0
  -11.1220  205.2238  118.2034 C   0  0  0  0  0  0  0  0  0  0  0  0
  -11.5731  206.6471  118.0292 C   0  0  0  0  0  0  0  0  0  0  0  0
  -11.2452  207.5453  119.0631 C   0  0  0  0  0  0  0  0  0  0  0  0
  -11.6088  208.8840  118.9865 C   0  0  0  0  0  0  0  0  0  0  0  0
  -12.3168  209.3604  117.8933 C   0  0  0  0  0  0  0  0  0  0  0  0
  -12.6160  208.4898  116.8398 C   0  0  0  0  0  0  0  0  0  0  0  0
  -12.2360  207.1394  116.8885 C   0  0  0  0  0  0  0  0  0  0  0  0
  -11.2424  209.6998  120.0153 O   0  0  0  0  0  0  0  0  0  0  0  0
  -11.4882  210.6122  119.7900 H   0  0  0  0  0  0  0  0  0  0  0  0
  1  2  1  0  0  0  0
  1  4  1  0  0  0  0
  2  3  2  0  0  0  0
  2  5  1  0  0  0  0
  5  6  2  0  0  0  0
  5 10  1  0  0  0  0
  6  7  1  0  0  0  0
  7  8  2  0  0  0  0
  8  9  1  0  0  0  0
  8 14  1  0  0  0  0
  9 10  2  0  0  0  0
  9 11  1  0  0  0  0
 11 12  1  0  0  0  0
 11 17  1  0  0  0  0
 12 13  2  0  0  0  0
 12 14  1  0  0  0  0
 14 15  1  0  0  0  0
 14 16  1  0  0  0  0
 18 19  1  0  0  0  0
 19 20  2  0  0  0  0
 19 24  1  0  0  0  0
 20 21  1  0  0  0  0
 21 22  2  0  0  0  0
 21 25  1  0  0  0  0
 22 23  1  0  0  0  0
 23 24  2  0  0  0  0
 24  1  1  0  0  0  0
 25 26  1  0  0  0  0
M  END
>  <minimizedAffinity>
-0.00006

$$$$
