ZINC00006108


 26 29  0  0  0  0  0  0  0  0999 V2000
  -11.8219  203.5798  117.6656 C   0  0  0  0  0  0  0  0  0  0  0  0
  -11.0955  204.3760  118.4629 N   0  0  0  0  0  0  0  0  0  0  0  0
  -11.0180  203.8443  119.6648 C   0  0  0  0  0  0  0  0  0  0  0  0
  -10.3653  204.2693  120.9101 C   0  0  0  0  0  0  0  0  0  0  0  0
  -10.4793  203.4839  121.9885 C   0  0  0  0  0  0  0  0  0  0  0  0
  -11.1964  202.3070  121.8985 N   0  0  0  0  0  0  0  0  0  0  0  0
  -11.2751  201.7261  122.7082 H   0  0  0  0  0  0  0  0  0  0  0  0
  -11.7900  201.9198  120.7602 C   0  0  0  0  0  0  0  0  0  0  0  0
  -12.4095  200.8733  120.7364 O   0  0  0  0  0  0  0  0  0  0  0  0
  -11.7140  202.6659  119.6473 N   0  0  0  0  0  0  0  0  0  0  0  0
  -12.2185  202.5254  118.3483 N   0  0  0  0  0  0  0  0  0  0  0  0
   -9.8569  203.8252  123.3172 C   0  0  0  0  0  0  0  0  0  0  0  0
   -8.7727  204.8873  123.1475 C   0  0  0  0  0  0  0  0  0  0  0  0
   -9.3606  206.0499  122.3384 C   0  0  0  0  0  0  0  0  0  0  0  0
   -9.6001  205.5639  120.9097 C   0  0  0  0  0  0  0  0  0  0  0  0
  -12.1442  205.1104  115.7798 N   0  0  0  0  0  0  0  0  0  0  0  0
  -12.1289  203.8442  116.2417 C   0  0  0  0  0  0  0  0  0  0  0  0
  -12.3665  202.9200  115.4895 O   0  0  0  0  0  0  0  0  0  0  0  0
  -11.9544  205.8482  116.3805 H   0  0  0  0  0  0  0  0  0  0  0  0
  -12.4481  205.3720  114.3705 C   0  0  0  0  0  0  0  0  0  0  0  0
   -8.8064  205.6302  112.1520 C   0  0  0  0  0  0  0  0  0  0  0  0
   -8.9741  206.3868  113.2970 C   0  0  0  0  0  0  0  0  0  0  0  0
  -10.1525  206.3040  114.0151 C   0  0  0  0  0  0  0  0  0  0  0  0
  -11.1634  205.4629  113.5880 C   0  0  0  0  0  0  0  0  0  0  0  0
  -10.9942  204.7017  112.4462 C   0  0  0  0  0  0  0  0  0  0  0  0
   -9.8178  204.7903  111.7255 C   0  0  0  0  0  0  0  0  0  0  0  0
 21 22  2  0  0  0
 21 26  1  0  0  0
 22 23  1  0  0  0
 23 24  2  0  0  0
 24 25  1  0  0  0
 24 20  1  0  0  0
 25 26  2  0  0  0
 20 16  1  0  0  0
 16 17  1  0  0  0
 16 19  1  0  0  0
 17 18  2  0  0  0
 17  1  1  0  0  0
  1  2  1  0  0  0
  1 11  2  0  0  0
  2  3  2  0  0  0
  3  4  1  0  0  0
  3 10  1  0  0  0
  4  5  2  0  0  0
  4 15  1  0  0  0
  5  6  1  0  0  0
  5 12  1  0  0  0
  6  7  1  0  0  0
  6  8  1  0  0  0
  8  9  2  0  0  0
  8 10  1  0  0  0
 10 11  1  0  0  0
 12 13  1  0  0  0
 13 14  1  0  0  0
 14 15  1  0  0  0
M  END
> <minimizedAffinity>
-0.00008

$$$$
ZINC00006108


 26 29  0  0  0  0  0  0  0  0999 V2000
  -13.5091  205.6372  119.0370 C   0  0  0  0  0  0  0  0  0  0  0  0
  -12.5253  206.0751  118.2384 N   0  0  0  0  0  0  0  0  0  0  0  0
  -12.8064  207.2907  117.8183 C   0  0  0  0  0  0  0  0  0  0  0  0
  -12.1044  208.2368  116.9412 C   0  0  0  0  0  0  0  0  0  0  0  0
  -12.6727  209.4255  116.7029 C   0  0  0  0  0  0  0  0  0  0  0  0
  -13.8880  209.7262  117.2861 N   0  0  0  0  0  0  0  0  0  0  0  0
  -14.3042  210.6165  117.1038 H   0  0  0  0  0  0  0  0  0  0  0  0
  -14.5264  208.8618  118.0881 C   0  0  0  0  0  0  0  0  0  0  0  0
  -15.5950  209.1779  118.5758 O   0  0  0  0  0  0  0  0  0  0  0  0
  -14.0088  207.6542  118.3618 N   0  0  0  0  0  0  0  0  0  0  0  0
  -14.4340  206.5696  119.1393 N   0  0  0  0  0  0  0  0  0  0  0  0
  -12.0448  210.4679  115.8149 C   0  0  0  0  0  0  0  0  0  0  0  0
  -10.5597  210.1770  115.6092 C   0  0  0  0  0  0  0  0  0  0  0  0
  -10.4120  208.7143  115.1726 C   0  0  0  0  0  0  0  0  0  0  0  0
  -10.7817  207.8231  116.3573 C   0  0  0  0  0  0  0  0  0  0  0  0
  -12.8796  203.2729  119.1662 N   0  0  0  0  0  0  0  0  0  0  0  0
  -13.5488  204.3141  119.7000 C   0  0  0  0  0  0  0  0  0  0  0  0
  -14.1841  204.1669  120.7251 O   0  0  0  0  0  0  0  0  0  0  0  0
  -12.3722  203.3906  118.3476 H   0  0  0  0  0  0  0  0  0  0  0  0
  -12.9189  201.9634  119.8224 C   0  0  0  0  0  0  0  0  0  0  0  0
   -9.5423  201.5638  122.4087 C   0  0  0  0  0  0  0  0  0  0  0  0
   -9.3633  201.9402  121.0904 C   0  0  0  0  0  0  0  0  0  0  0  0
  -10.4555  202.0693  120.2529 C   0  0  0  0  0  0  0  0  0  0  0  0
  -11.7278  201.8226  120.7348 C   0  0  0  0  0  0  0  0  0  0  0  0
  -11.9081  201.4518  122.0545 C   0  0  0  0  0  0  0  0  0  0  0  0
  -10.8144  201.3168  122.8893 C   0  0  0  0  0  0  0  0  0  0  0  0
 21 22  2  0  0  0
 21 26  1  0  0  0
 22 23  1  0  0  0
 23 24  2  0  0  0
 24 25  1  0  0  0
 24 20  1  0  0  0
 25 26  2  0  0  0
 20 16  1  0  0  0
 16 17  1  0  0  0
 16 19  1  0  0  0
 17 18  2  0  0  0
 17  1  1  0  0  0
  1  2  1  0  0  0
  1 11  2  0  0  0
  2  3  2  0  0  0
  3  4  1  0  0  0
  3 10  1  0  0  0
  4  5  2  0  0  0
  4 15  1  0  0  0
  5  6  1  0  0  0
  5 12  1  0  0  0
  6  7  1  0  0  0
  6  8  1  0  0  0
  8  9  2  0  0  0
  8 10  1  0  0  0
 10 11  1  0  0  0
 12 13  1  0  0  0
 13 14  1  0  0  0
 14 15  1  0  0  0
M  END
> <minimizedAffinity>
-0.00008

$$$$
ZINC00006108


 26 29  0  0  0  0  0  0  0  0999 V2000
  -10.4044  207.3885  116.0807 C   0  0  0  0  0  0  0  0  0  0  0  0
  -11.1562  207.8809  115.0858 N   0  0  0  0  0  0  0  0  0  0  0  0
  -10.4087  208.6180  114.2915 C   0  0  0  0  0  0  0  0  0  0  0  0
  -10.6937  209.3850  113.0717 C   0  0  0  0  0  0  0  0  0  0  0  0
   -9.6876  210.0469  112.4865 C   0  0  0  0  0  0  0  0  0  0  0  0
   -8.4231  209.9864  113.0386 N   0  0  0  0  0  0  0  0  0  0  0  0
   -7.6777  210.4824  112.5942 H   0  0  0  0  0  0  0  0  0  0  0  0
   -8.1645  209.2840  114.1512 C   0  0  0  0  0  0  0  0  0  0  0  0
   -7.0322  209.2648  114.5950 O   0  0  0  0  0  0  0  0  0  0  0  0
   -9.1320  208.6029  114.7845 N   0  0  0  0  0  0  0  0  0  0  0  0
   -9.1631  207.8044  115.9348 N   0  0  0  0  0  0  0  0  0  0  0  0
   -9.8681  210.8692  111.2373 C   0  0  0  0  0  0  0  0  0  0  0  0
  -11.1677  210.4943  110.5283 C   0  0  0  0  0  0  0  0  0  0  0  0
  -12.3054  210.5358  111.5557 C   0  0  0  0  0  0  0  0  0  0  0  0
  -12.1007  209.3859  112.5409 C   0  0  0  0  0  0  0  0  0  0  0  0
  -12.1888  206.5576  117.5397 N   0  0  0  0  0  0  0  0  0  0  0  0
  -10.8930  206.5144  117.1711 C   0  0  0  0  0  0  0  0  0  0  0  0
  -10.1262  205.7580  117.7333 O   0  0  0  0  0  0  0  0  0  0  0  0
  -12.8010  207.1617  117.0906 H   0  0  0  0  0  0  0  0  0  0  0  0
  -12.6723  205.6925  118.6189 C   0  0  0  0  0  0  0  0  0  0  0  0
  -14.2656  202.0947  116.9551 C   0  0  0  0  0  0  0  0  0  0  0  0
  -14.6918  203.3228  116.4841 C   0  0  0  0  0  0  0  0  0  0  0  0
  -14.1769  204.4874  117.0224 C   0  0  0  0  0  0  0  0  0  0  0  0
  -13.2342  204.4233  118.0318 C   0  0  0  0  0  0  0  0  0  0  0  0
  -12.8032  203.1956  118.4993 C   0  0  0  0  0  0  0  0  0  0  0  0
  -13.3238  202.0318  117.9646 C   0  0  0  0  0  0  0  0  0  0  0  0
 21 22  2  0  0  0
 21 26  1  0  0  0
 22 23  1  0  0  0
 23 24  2  0  0  0
 24 25  1  0  0  0
 24 20  1  0  0  0
 25 26  2  0  0  0
 20 16  1  0  0  0
 16 17  1  0  0  0
 16 19  1  0  0  0
 17 18  2  0  0  0
 17  1  1  0  0  0
  1  2  1  0  0  0
  1 11  2  0  0  0
  2  3  2  0  0  0
  3  4  1  0  0  0
  3 10  1  0  0  0
  4  5  2  0  0  0
  4 15  1  0  0  0
  5  6  1  0  0  0
  5 12  1  0  0  0
  6  7  1  0  0  0
  6  8  1  0  0  0
  8  9  2  0  0  0
  8 10  1  0  0  0
 10 11  1  0  0  0
 12 13  1  0  0  0
 13 14  1  0  0  0
 14 15  1  0  0  0
M  END
> <minimizedAffinity>
-0.00007

$$$$
