ZINC00023841


 27 30  0  0  0  0  0  0  0  0999 V2000
  -14.3520  204.7722  113.4324 C   0  0  0  0  0  0  0  0  0  0  0  0
  -14.8205  204.5143  114.7328 C   0  0  0  0  0  0  0  0  0  0  0  0
  -16.0782  204.6593  115.3654 C   0  0  0  0  0  0  0  0  0  0  0  0
  -15.9643  204.2674  116.6009 N   0  0  0  0  0  0  0  0  0  0  0  0
  -14.6514  203.8493  116.8456 N   0  0  0  0  0  0  0  0  0  0  0  0
  -14.2992  203.5023  117.7148 H   0  0  0  0  0  0  0  0  0  0  0  0
  -13.9313  203.9977  115.6933 C   0  0  0  0  0  0  0  0  0  0  0  0
  -12.1890  203.9796  114.1734 C   0  0  0  0  0  0  0  0  0  0  0  0
  -13.0024  204.4986  113.1552 C   0  0  0  0  0  0  0  0  0  0  0  0
  -12.6112  203.7260  115.4333 N   0  0  0  0  0  0  0  0  0  0  0  0
  -11.9807  203.3526  116.1526 H   0  0  0  0  0  0  0  0  0  0  0  0
  -12.4511  204.7474  111.8133 C   0  0  0  0  0  0  0  0  0  0  0  0
  -12.4679  203.8661  110.9757 O   0  0  0  0  0  0  0  0  0  0  0  0
  -11.8776  206.0692  111.4837 C   0  0  0  0  0  0  0  0  0  0  0  0
  -11.6484  207.0064  112.4931 C   0  0  0  0  0  0  0  0  0  0  0  0
  -11.1189  208.2402  112.1778 C   0  0  0  0  0  0  0  0  0  0  0  0
  -10.8138  208.5496  110.8644 C   0  0  0  0  0  0  0  0  0  0  0  0
  -11.0392  207.6265  109.8581 C   0  0  0  0  0  0  0  0  0  0  0  0
  -11.5681  206.3894  110.1596 C   0  0  0  0  0  0  0  0  0  0  0  0
  -15.1741  205.2684  112.4792 O   0  0  0  0  0  0  0  0  0  0  0  0
  -15.5629  206.6373  112.6069 C   0  0  0  0  0  0  0  0  0  0  0  0
  -14.4841  208.7615  109.0616 C   0  0  0  0  0  0  0  0  0  0  0  0
  -14.9211  207.4524  108.9771 C   0  0  0  0  0  0  0  0  0  0  0  0
  -15.2697  206.7650  110.1243 C   0  0  0  0  0  0  0  0  0  0  0  0
  -15.1824  207.3870  111.3561 C   0  0  0  0  0  0  0  0  0  0  0  0
  -14.7503  208.6974  111.4400 C   0  0  0  0  0  0  0  0  0  0  0  0
  -14.3958  209.3832  110.2932 C   0  0  0  0  0  0  0  0  0  0  0  0
 22 23  2  0  0  0
 22 27  1  0  0  0
 23 24  1  0  0  0
 24 25  2  0  0  0
 25 26  1  0  0  0
 25 21  1  0  0  0
 26 27  2  0  0  0
 21 20  1  0  0  0
 20  1  1  0  0  0
  1  2  2  0  0  0
  1  9  1  0  0  0
  2  3  1  0  0  0
  2  7  1  0  0  0
  3  4  2  0  0  0
  4  5  1  0  0  0
  5  6  1  0  0  0
  5  7  1  0  0  0
  7 10  1  0  0  0
  8  9  2  0  0  0
  8 10  1  0  0  0
  9 12  1  0  0  0
 12 13  2  0  0  0
 12 14  1  0  0  0
 14 15  2  0  0  0
 14 19  1  0  0  0
 15 16  1  0  0  0
 16 17  2  0  0  0
 17 18  1  0  0  0
 18 19  2  0  0  0
 10 11  1  0  0  0
M  END
> <minimizedAffinity>
-0.00035

$$$$
ZINC00023841


 27 30  0  0  0  0  0  0  0  0999 V2000
  -17.9826  204.8313  111.7187 C   0  0  0  0  0  0  0  0  0  0  0  0
  -18.7257  203.6545  111.5188 C   0  0  0  0  0  0  0  0  0  0  0  0
  -19.8086  203.0540  112.2043 C   0  0  0  0  0  0  0  0  0  0  0  0
  -20.1230  201.9512  111.5894 N   0  0  0  0  0  0  0  0  0  0  0  0
  -19.2822  201.7683  110.4858 N   0  0  0  0  0  0  0  0  0  0  0  0
  -19.3129  200.9999  109.8467 H   0  0  0  0  0  0  0  0  0  0  0  0
  -18.4102  202.8195  110.4311 C   0  0  0  0  0  0  0  0  0  0  0  0
  -16.7078  204.2290  109.7521 C   0  0  0  0  0  0  0  0  0  0  0  0
  -16.9489  205.1164  110.8113 C   0  0  0  0  0  0  0  0  0  0  0  0
  -17.4032  203.0885  109.5381 N   0  0  0  0  0  0  0  0  0  0  0  0
  -17.1895  202.4612  108.7538 H   0  0  0  0  0  0  0  0  0  0  0  0
  -16.1343  206.3325  110.9665 C   0  0  0  0  0  0  0  0  0  0  0  0
  -16.4679  207.3628  110.4135 O   0  0  0  0  0  0  0  0  0  0  0  0
  -14.9109  206.3014  111.7952 C   0  0  0  0  0  0  0  0  0  0  0  0
  -14.3989  205.0828  112.2456 C   0  0  0  0  0  0  0  0  0  0  0  0
  -13.2605  205.0614  113.0238 C   0  0  0  0  0  0  0  0  0  0  0  0
  -12.6253  206.2442  113.3574 C   0  0  0  0  0  0  0  0  0  0  0  0
  -13.1272  207.4561  112.9159 C   0  0  0  0  0  0  0  0  0  0  0  0
  -14.2645  207.4917  112.1373 C   0  0  0  0  0  0  0  0  0  0  0  0
  -18.2538  205.6619  112.7519 O   0  0  0  0  0  0  0  0  0  0  0  0
  -17.8875  205.2130  114.0580 C   0  0  0  0  0  0  0  0  0  0  0  0
  -15.2879  208.0761  115.8717 C   0  0  0  0  0  0  0  0  0  0  0  0
  -16.3216  208.4996  115.0569 C   0  0  0  0  0  0  0  0  0  0  0  0
  -17.1624  207.5731  114.4697 C   0  0  0  0  0  0  0  0  0  0  0  0
  -16.9703  206.2230  114.6981 C   0  0  0  0  0  0  0  0  0  0  0  0
  -15.9400  205.8000  115.5168 C   0  0  0  0  0  0  0  0  0  0  0  0
  -15.0951  206.7262  116.0994 C   0  0  0  0  0  0  0  0  0  0  0  0
 22 23  2  0  0  0
 22 27  1  0  0  0
 23 24  1  0  0  0
 24 25  2  0  0  0
 25 26  1  0  0  0
 25 21  1  0  0  0
 26 27  2  0  0  0
 21 20  1  0  0  0
 20  1  1  0  0  0
  1  2  2  0  0  0
  1  9  1  0  0  0
  2  3  1  0  0  0
  2  7  1  0  0  0
  3  4  2  0  0  0
  4  5  1  0  0  0
  5  6  1  0  0  0
  5  7  1  0  0  0
  7 10  1  0  0  0
  8  9  2  0  0  0
  8 10  1  0  0  0
  9 12  1  0  0  0
 12 13  2  0  0  0
 12 14  1  0  0  0
 14 15  2  0  0  0
 14 19  1  0  0  0
 15 16  1  0  0  0
 16 17  2  0  0  0
 17 18  1  0  0  0
 18 19  2  0  0  0
 10 11  1  0  0  0
M  END
> <minimizedAffinity>
-0.00033

$$$$
ZINC00023841


 27 30  0  0  0  0  0  0  0  0999 V2000
  -14.5213  204.9071  117.1982 C   0  0  0  0  0  0  0  0  0  0  0  0
  -15.5167  205.8027  117.6272 C   0  0  0  0  0  0  0  0  0  0  0  0
  -16.7684  206.1993  117.0988 C   0  0  0  0  0  0  0  0  0  0  0  0
  -17.2975  207.0714  117.9065 N   0  0  0  0  0  0  0  0  0  0  0  0
  -16.4414  207.2924  118.9912 N   0  0  0  0  0  0  0  0  0  0  0  0
  -16.6109  207.9163  119.7540 H   0  0  0  0  0  0  0  0  0  0  0  0
  -15.3321  206.5103  118.8294 C   0  0  0  0  0  0  0  0  0  0  0  0
  -13.2805  205.5060  119.1875 C   0  0  0  0  0  0  0  0  0  0  0  0
  -13.3779  204.7635  118.0015 C   0  0  0  0  0  0  0  0  0  0  0  0
  -14.2197  206.3772  119.6223 N   0  0  0  0  0  0  0  0  0  0  0  0
  -14.1062  206.9079  120.4940 H   0  0  0  0  0  0  0  0  0  0  0  0
  -12.2999  203.8421  117.6070 C   0  0  0  0  0  0  0  0  0  0  0  0
  -12.3174  202.6871  117.9868 O   0  0  0  0  0  0  0  0  0  0  0  0
  -11.1963  204.3209  116.7483 C   0  0  0  0  0  0  0  0  0  0  0  0
  -11.0454  205.6857  116.4949 C   0  0  0  0  0  0  0  0  0  0  0  0
  -10.0172  206.1251  115.6877 C   0  0  0  0  0  0  0  0  0  0  0  0
   -9.1354  205.2165  115.1303 C   0  0  0  0  0  0  0  0  0  0  0  0
   -9.2790  203.8620  115.3758 C   0  0  0  0  0  0  0  0  0  0  0  0
  -10.3026  203.4094  116.1809 C   0  0  0  0  0  0  0  0  0  0  0  0
  -14.6597  204.2069  116.0488 O   0  0  0  0  0  0  0  0  0  0  0  0
  -14.5274  204.9346  114.8263 C   0  0  0  0  0  0  0  0  0  0  0  0
  -11.4514  203.1713  112.4443 C   0  0  0  0  0  0  0  0  0  0  0  0
  -12.2744  202.3702  113.2141 C   0  0  0  0  0  0  0  0  0  0  0  0
  -13.2694  202.9408  113.9851 C   0  0  0  0  0  0  0  0  0  0  0  0
  -13.4421  204.3127  113.9857 C   0  0  0  0  0  0  0  0  0  0  0  0
  -12.6225  205.1131  113.2122 C   0  0  0  0  0  0  0  0  0  0  0  0
  -11.6234  204.5431  112.4456 C   0  0  0  0  0  0  0  0  0  0  0  0
 22 23  2  0  0  0
 22 27  1  0  0  0
 23 24  1  0  0  0
 24 25  2  0  0  0
 25 26  1  0  0  0
 25 21  1  0  0  0
 26 27  2  0  0  0
 21 20  1  0  0  0
 20  1  1  0  0  0
  1  2  2  0  0  0
  1  9  1  0  0  0
  2  3  1  0  0  0
  2  7  1  0  0  0
  3  4  2  0  0  0
  4  5  1  0  0  0
  5  6  1  0  0  0
  5  7  1  0  0  0
  7 10  1  0  0  0
  8  9  2  0  0  0
  8 10  1  0  0  0
  9 12  1  0  0  0
 12 13  2  0  0  0
 12 14  1  0  0  0
 14 15  2  0  0  0
 14 19  1  0  0  0
 15 16  1  0  0  0
 16 17  2  0  0  0
 17 18  1  0  0  0
 18 19  2  0  0  0
 10 11  1  0  0  0
M  END
> <minimizedAffinity>
-0.00029

$$$$
