ZINC00002103


 26 27  0  0  0  0  0  0  0  0999 V2000
  -16.5815  203.3244  119.1562 C   0  0  0  0  0  0  0  0  0  0  0  0
  -15.4414  203.3076  118.7323 O   0  0  0  0  0  0  0  0  0  0  0  0
  -17.3027  202.1655  119.5186 N   0  0  0  0  0  0  0  0  0  0  0  0
  -18.2815  202.2075  119.7577 H   0  0  0  0  0  0  0  0  0  0  0  0
  -18.5461  207.1720  119.7046 C   0  0  0  0  0  0  0  0  0  0  0  0
  -18.8307  206.1134  120.5557 C   0  0  0  0  0  0  0  0  0  0  0  0
  -18.2371  204.8434  120.3311 C   0  0  0  0  0  0  0  0  0  0  0  0
  -17.3537  204.6221  119.2552 C   0  0  0  0  0  0  0  0  0  0  0  0
  -17.1776  205.6593  118.3391 C   0  0  0  0  0  0  0  0  0  0  0  0
  -17.7638  206.9117  118.5706 C   0  0  0  0  0  0  0  0  0  0  0  0
  -18.9517  208.4639  119.7774 O   0  0  0  0  0  0  0  0  0  0  0  0
  -19.6441  209.6111  121.8459 C   0  0  0  0  0  0  0  0  0  0  0  0
  -18.6039  209.4555  120.7458 C   0  0  0  0  0  0  0  0  0  0  0  0
  -17.1757  209.4572  121.2805 C   0  0  0  0  0  0  0  0  0  0  0  0
  -16.7662  200.5870  119.5716 S   0  0  0  0  0  0  0  0  0  0  0  0
  -17.7718  199.7211  120.1205 O   0  0  0  0  0  0  0  0  0  0  0  0
  -16.2150  200.3557  118.2433 O   0  0  0  0  0  0  0  0  0  0  0  0
  -15.3851  200.6595  120.6913 C   0  0  0  0  0  0  0  0  0  0  0  0
  -15.6107  200.9988  122.0301 C   0  0  0  0  0  0  0  0  0  0  0  0
  -14.5205  201.3155  122.8407 C   0  0  0  0  0  0  0  0  0  0  0  0
  -13.2285  201.3427  122.3122 C   0  0  0  0  0  0  0  0  0  0  0  0
  -13.0032  200.7805  121.0532 C   0  0  0  0  0  0  0  0  0  0  0  0
  -14.0862  200.4561  120.2300 C   0  0  0  0  0  0  0  0  0  0  0  0
  -12.1512  201.7766  123.0958 N   0  0  0  0  0  0  0  0  0  0  0  0
  -11.4216  202.2048  122.5299 H   0  0  0  0  0  0  0  0  0  0  0  0
  -12.4389  202.4028  123.8433 H   0  0  0  0  0  0  0  0  0  0  0  0
 12 13  1  0  0  0
 13 14  1  0  0  0
 13 11  1  0  0  0
 11  5  1  0  0  0
  5  6  2  0  0  0
  5 10  1  0  0  0
  6  7  1  0  0  0
  7  8  2  0  0  0
  8  9  1  0  0  0
  8  1  1  0  0  0
  9 10  2  0  0  0
  1  2  2  0  0  0
  1  3  1  0  0  0
  3 15  1  0  0  0
  3  4  1  0  0  0
 15 16  2  0  0  0
 15 17  2  0  0  0
 15 18  1  0  0  0
 18 19  2  0  0  0
 18 23  1  0  0  0
 19 20  1  0  0  0
 20 21  2  0  0  0
 21 22  1  0  0  0
 21 24  1  0  0  0
 22 23  2  0  0  0
 24 25  1  0  0  0
 24 26  1  0  0  0
M  END
> <minimizedAffinity>
0.00000

$$$$
ZINC00002103


 26 27  0  0  0  0  0  0  0  0999 V2000
  -12.6600  206.2561  120.7990 C   0  0  0  0  0  0  0  0  0  0  0  0
  -11.5287  206.7024  120.7710 O   0  0  0  0  0  0  0  0  0  0  0  0
  -12.9749  204.9362  121.1907 N   0  0  0  0  0  0  0  0  0  0  0  0
  -13.9081  204.5664  121.0934 H   0  0  0  0  0  0  0  0  0  0  0  0
  -15.9658  208.8859  119.7410 C   0  0  0  0  0  0  0  0  0  0  0  0
  -16.1394  207.8928  120.6947 C   0  0  0  0  0  0  0  0  0  0  0  0
  -15.0776  206.9967  120.9868 C   0  0  0  0  0  0  0  0  0  0  0  0
  -13.8342  207.0871  120.3291 C   0  0  0  0  0  0  0  0  0  0  0  0
  -13.7189  208.0076  119.2873 C   0  0  0  0  0  0  0  0  0  0  0  0
  -14.7706  208.8919  119.0081 C   0  0  0  0  0  0  0  0  0  0  0  0
  -16.8187  209.8701  119.3627 O   0  0  0  0  0  0  0  0  0  0  0  0
  -18.6306  210.7824  120.7622 C   0  0  0  0  0  0  0  0  0  0  0  0
  -17.2701  210.9980  120.1150 C   0  0  0  0  0  0  0  0  0  0  0  0
  -16.2731  211.6744  121.0499 C   0  0  0  0  0  0  0  0  0  0  0  0
  -11.9533  203.7644  121.7952 S   0  0  0  0  0  0  0  0  0  0  0  0
  -12.6897  202.5988  122.1971 O   0  0  0  0  0  0  0  0  0  0  0  0
  -10.8877  203.6792  120.8058 O   0  0  0  0  0  0  0  0  0  0  0  0
  -11.2504  204.5355  123.2366 C   0  0  0  0  0  0  0  0  0  0  0  0
  -12.0861  204.8607  124.3110 C   0  0  0  0  0  0  0  0  0  0  0  0
  -11.5999  205.6949  125.3178 C   0  0  0  0  0  0  0  0  0  0  0  0
  -10.3167  206.2380  125.2303 C   0  0  0  0  0  0  0  0  0  0  0  0
   -9.4288  205.7204  124.2838 C   0  0  0  0  0  0  0  0  0  0  0  0
   -9.9012  204.8815  123.2695 C   0  0  0  0  0  0  0  0  0  0  0  0
   -9.8747  207.1688  126.1796 N   0  0  0  0  0  0  0  0  0  0  0  0
   -9.2008  207.8205  125.7833 H   0  0  0  0  0  0  0  0  0  0  0  0
  -10.6409  207.6700  126.6215 H   0  0  0  0  0  0  0  0  0  0  0  0
 12 13  1  0  0  0
 13 14  1  0  0  0
 13 11  1  0  0  0
 11  5  1  0  0  0
  5  6  2  0  0  0
  5 10  1  0  0  0
  6  7  1  0  0  0
  7  8  2  0  0  0
  8  9  1  0  0  0
  8  1  1  0  0  0
  9 10  2  0  0  0
  1  2  2  0  0  0
  1  3  1  0  0  0
  3 15  1  0  0  0
  3  4  1  0  0  0
 15 16  2  0  0  0
 15 17  2  0  0  0
 15 18  1  0  0  0
 18 19  2  0  0  0
 18 23  1  0  0  0
 19 20  1  0  0  0
 20 21  2  0  0  0
 21 22  1  0  0  0
 21 24  1  0  0  0
 22 23  2  0  0  0
 24 25  1  0  0  0
 24 26  1  0  0  0
M  END
> <minimizedAffinity>
0.00007

$$$$
ZINC00002103


 26 27  0  0  0  0  0  0  0  0999 V2000
  -14.4047  207.4866  118.2889 C   0  0  0  0  0  0  0  0  0  0  0  0
  -14.5398  206.7759  117.3110 O   0  0  0  0  0  0  0  0  0  0  0  0
  -15.3861  207.6368  119.2933 N   0  0  0  0  0  0  0  0  0  0  0  0
  -15.2868  208.3195  120.0290 H   0  0  0  0  0  0  0  0  0  0  0  0
  -10.6454  209.6216  118.8122 C   0  0  0  0  0  0  0  0  0  0  0  0
  -11.3562  209.1750  119.9173 C   0  0  0  0  0  0  0  0  0  0  0  0
  -12.6131  208.5385  119.7424 C   0  0  0  0  0  0  0  0  0  0  0  0
  -13.1685  208.3423  118.4619 C   0  0  0  0  0  0  0  0  0  0  0  0
  -12.5024  208.9077  117.3743 C   0  0  0  0  0  0  0  0  0  0  0  0
  -11.2595  209.5308  117.5551 C   0  0  0  0  0  0  0  0  0  0  0  0
   -9.4154  210.1899  118.7560 O   0  0  0  0  0  0  0  0  0  0  0  0
   -7.6471  209.8976  120.4476 C   0  0  0  0  0  0  0  0  0  0  0  0
   -8.1455  209.5997  119.0408 C   0  0  0  0  0  0  0  0  0  0  0  0
   -7.9299  208.1457  118.6346 C   0  0  0  0  0  0  0  0  0  0  0  0
  -16.8396  206.8333  119.4485 S   0  0  0  0  0  0  0  0  0  0  0  0
  -17.4885  207.1793  120.6820 O   0  0  0  0  0  0  0  0  0  0  0  0
  -17.4978  207.0413  118.1658 O   0  0  0  0  0  0  0  0  0  0  0  0
  -16.3589  205.1209  119.5031 C   0  0  0  0  0  0  0  0  0  0  0  0
  -15.5886  204.6636  120.5783 C   0  0  0  0  0  0  0  0  0  0  0  0
  -14.9903  203.4063  120.4954 C   0  0  0  0  0  0  0  0  0  0  0  0
  -15.1160  202.6363  119.3375 C   0  0  0  0  0  0  0  0  0  0  0  0
  -16.0687  203.0038  118.3839 C   0  0  0  0  0  0  0  0  0  0  0  0
  -16.6783  204.2604  118.4549 C   0  0  0  0  0  0  0  0  0  0  0  0
  -14.4171  201.4288  119.2098 N   0  0  0  0  0  0  0  0  0  0  0  0
  -14.1914  201.2247  118.2386 H   0  0  0  0  0  0  0  0  0  0  0  0
  -13.5802  201.3990  119.7863 H   0  0  0  0  0  0  0  0  0  0  0  0
 12 13  1  0  0  0
 13 14  1  0  0  0
 13 11  1  0  0  0
 11  5  1  0  0  0
  5  6  2  0  0  0
  5 10  1  0  0  0
  6  7  1  0  0  0
  7  8  2  0  0  0
  8  9  1  0  0  0
  8  1  1  0  0  0
  9 10  2  0  0  0
  1  2  2  0  0  0
  1  3  1  0  0  0
  3 15  1  0  0  0
  3  4  1  0  0  0
 15 16  2  0  0  0
 15 17  2  0  0  0
 15 18  1  0  0  0
 18 19  2  0  0  0
 18 23  1  0  0  0
 19 20  1  0  0  0
 20 21  2  0  0  0
 21 22  1  0  0  0
 21 24  1  0  0  0
 22 23  2  0  0  0
 24 25  1  0  0  0
 24 26  1  0  0  0
M  END
> <minimizedAffinity>
0.00008

$$$$
