ZINC00023543
 OpenBabel07192212403D

 21 23  0  0  0  0  0  0  0  0999 V2000
  -14.8055  203.5687  115.1268 C   0  0  0  0  0  0  0  0  0  0  0  0
  -14.2932  202.3282  114.8822 N   0  0  0  0  0  0  0  0  0  0  0  0
  -14.2264  201.5761  115.5377 H   0  0  0  0  0  0  0  0  0  0  0  0
  -13.8852  202.3029  113.5725 C   0  0  0  0  0  0  0  0  0  0  0  0
  -14.1756  203.5757  113.0512 C   0  0  0  0  0  0  0  0  0  0  0  0
  -14.7366  204.2983  114.0523 N   0  0  0  0  0  0  0  0  0  0  0  0
  -13.8587  203.8332  111.7096 C   0  0  0  0  0  0  0  0  0  0  0  0
  -13.2988  202.8676  110.9918 N   0  0  0  0  0  0  0  0  0  0  0  0
  -13.0405  201.6793  111.5237 C   0  0  0  0  0  0  0  0  0  0  0  0
  -13.3237  201.3932  112.7841 N   0  0  0  0  0  0  0  0  0  0  0  0
  -12.4546  200.7050  110.7314 N   0  0  0  0  0  0  0  0  0  0  0  0
  -12.2596  199.8306  111.1030 H   0  0  0  0  0  0  0  0  0  0  0  0
  -12.2404  200.8979  109.8051 H   0  0  0  0  0  0  0  0  0  0  0  0
  -14.1189  205.0429  111.1566 O   0  0  0  0  0  0  0  0  0  0  0  0
  -15.2567  205.1321  110.2978 C   0  0  0  0  0  0  0  0  0  0  0  0
  -16.3095  206.0382  110.9387 C   0  0  0  0  0  0  0  0  0  0  0  0
  -15.6285  207.0067  111.9078 C   0  0  0  0  0  0  0  0  0  0  0  0
  -16.6813  207.9128  112.5488 C   0  0  0  0  0  0  0  0  0  0  0  0
  -17.6947  207.0570  113.3113 C   0  0  0  0  0  0  0  0  0  0  0  0
  -18.3767  206.0892  112.3416 C   0  0  0  0  0  0  0  0  0  0  0  0
  -17.3228  205.1824  111.7012 C   0  0  0  0  0  0  0  0  0  0  0  0
  1  2  1  0  0  0  0
  1  6  2  0  0  0  0
  2  3  1  0  0  0  0
  2  4  1  0  0  0  0
  4  5  2  0  0  0  0
  4 10  1  0  0  0  0
  5  6  1  0  0  0  0
  5  7  1  0  0  0  0
  7  8  2  0  0  0  0
  7 14  1  0  0  0  0
  8  9  1  0  0  0  0
  9 10  2  0  0  0  0
  9 11  1  0  0  0  0
 11 12  1  0  0  0  0
 11 13  1  0  0  0  0
 14 15  1  0  0  0  0
 15 16  1  0  0  0  0
 16 17  1  0  0  0  0
 16 21  1  0  0  0  0
 17 18  1  0  0  0  0
 18 19  1  0  0  0  0
 19 20  1  0  0  0  0
 20 21  1  0  0  0  0
M  END
>  <minimizedAffinity>
-0.00030

$$$$
