ZINC00002103
 OpenBabel07192212403D

 26 27  0  0  0  0  0  0  0  0999 V2000
  -16.5815  203.3244  119.1562 C   0  0  0  0  0  0  0  0  0  0  0  0
  -15.4414  203.3076  118.7323 O   0  0  0  0  0  0  0  0  0  0  0  0
  -17.3027  202.1655  119.5186 N   0  0  0  0  0  0  0  0  0  0  0  0
  -18.2815  202.2075  119.7577 H   0  0  0  0  0  0  0  0  0  0  0  0
  -18.5461  207.1720  119.7046 C   0  0  0  0  0  0  0  0  0  0  0  0
  -18.8307  206.1134  120.5557 C   0  0  0  0  0  0  0  0  0  0  0  0
  -18.2371  204.8434  120.3311 C   0  0  0  0  0  0  0  0  0  0  0  0
  -17.3537  204.6221  119.2552 C   0  0  0  0  0  0  0  0  0  0  0  0
  -17.1776  205.6593  118.3391 C   0  0  0  0  0  0  0  0  0  0  0  0
  -17.7638  206.9117  118.5706 C   0  0  0  0  0  0  0  0  0  0  0  0
  -18.9517  208.4639  119.7774 O   0  0  0  0  0  0  0  0  0  0  0  0
  -19.6441  209.6111  121.8459 C   0  0  0  0  0  0  0  0  0  0  0  0
  -18.6039  209.4555  120.7458 C   0  0  0  0  0  0  0  0  0  0  0  0
  -17.1757  209.4572  121.2805 C   0  0  0  0  0  0  0  0  0  0  0  0
  -16.7662  200.5870  119.5716 S   0  0  0  0  0  0  0  0  0  0  0  0
  -17.7718  199.7211  120.1205 O   0  0  0  0  0  0  0  0  0  0  0  0
  -16.2150  200.3557  118.2433 O   0  0  0  0  0  0  0  0  0  0  0  0
  -15.3851  200.6595  120.6913 C   0  0  0  0  0  0  0  0  0  0  0  0
  -15.6107  200.9988  122.0301 C   0  0  0  0  0  0  0  0  0  0  0  0
  -14.5205  201.3155  122.8407 C   0  0  0  0  0  0  0  0  0  0  0  0
  -13.2285  201.3427  122.3122 C   0  0  0  0  0  0  0  0  0  0  0  0
  -13.0032  200.7805  121.0532 C   0  0  0  0  0  0  0  0  0  0  0  0
  -14.0862  200.4561  120.2300 C   0  0  0  0  0  0  0  0  0  0  0  0
  -12.1512  201.7766  123.0958 N   0  0  0  0  0  0  0  0  0  0  0  0
  -11.4216  202.2048  122.5299 H   0  0  0  0  0  0  0  0  0  0  0  0
  -12.4389  202.4028  123.8433 H   0  0  0  0  0  0  0  0  0  0  0  0
  1  2  2  0  0  0  0
  1  3  1  0  0  0  0
  3 15  1  0  0  0  0
  3  4  1  0  0  0  0
  5  6  2  0  0  0  0
  5 10  1  0  0  0  0
  6  7  1  0  0  0  0
  7  8  2  0  0  0  0
  8  9  1  0  0  0  0
  8  1  1  0  0  0  0
  9 10  2  0  0  0  0
 11  5  1  0  0  0  0
 12 13  1  0  0  0  0
 13 14  1  0  0  0  0
 13 11  1  0  0  0  0
 15 16  2  0  0  0  0
 15 17  2  0  0  0  0
 15 18  1  0  0  0  0
 18 19  2  0  0  0  0
 18 23  1  0  0  0  0
 19 20  1  0  0  0  0
 20 21  2  0  0  0  0
 21 22  1  0  0  0  0
 21 24  1  0  0  0  0
 22 23  2  0  0  0  0
 24 25  1  0  0  0  0
 24 26  1  0  0  0  0
M  END
>  <minimizedAffinity>
0.00000

$$$$
