ZINC00002112
 OpenBabel07192212403D

 26 28  0  0  0  0  0  0  0  0999 V2000
  -12.9060  203.9543  120.6626 N   0  0  0  0  0  0  0  0  0  0  0  0
  -13.1939  204.7822  121.0781 H   0  0  0  0  0  0  0  0  0  0  0  0
   -8.5029  202.1425  122.1532 C   0  0  0  0  0  0  0  0  0  0  0  0
   -9.5795  202.7948  121.3232 C   0  0  0  0  0  0  0  0  0  0  0  0
  -10.9114  202.9736  121.7081 C   0  0  0  0  0  0  0  0  0  0  0  0
  -11.5615  203.5952  120.6858 C   0  0  0  0  0  0  0  0  0  0  0  0
  -10.6541  203.8055  119.6934 N   0  0  0  0  0  0  0  0  0  0  0  0
   -9.4231  203.2927  120.1240 N   0  0  0  0  0  0  0  0  0  0  0  0
  -10.9060  204.4244  118.4619 C   0  0  0  0  0  0  0  0  0  0  0  0
  -10.9366  203.6696  117.2967 C   0  0  0  0  0  0  0  0  0  0  0  0
  -11.1901  204.2821  116.0853 C   0  0  0  0  0  0  0  0  0  0  0  0
  -11.4034  205.6474  116.0300 C   0  0  0  0  0  0  0  0  0  0  0  0
  -11.3686  206.4025  117.1874 C   0  0  0  0  0  0  0  0  0  0  0  0
  -11.1202  205.7953  118.4034 C   0  0  0  0  0  0  0  0  0  0  0  0
  -14.0137  202.9696  119.9249 S   0  0  0  0  0  0  0  0  0  0  0  0
  -15.1838  202.9996  120.7304 O   0  0  0  0  0  0  0  0  0  0  0  0
  -13.3366  201.7607  119.6105 O   0  0  0  0  0  0  0  0  0  0  0  0
  -14.4395  203.7216  118.3897 C   0  0  0  0  0  0  0  0  0  0  0  0
  -14.5098  202.9538  117.2412 C   0  0  0  0  0  0  0  0  0  0  0  0
  -14.8384  203.5418  116.0357 C   0  0  0  0  0  0  0  0  0  0  0  0
  -15.0973  204.9044  115.9762 C   0  0  0  0  0  0  0  0  0  0  0  0
  -15.0264  205.6725  117.1314 C   0  0  0  0  0  0  0  0  0  0  0  0
  -14.6978  205.0794  118.3349 C   0  0  0  0  0  0  0  0  0  0  0  0
  -15.4298  205.5019  114.7586 N   0  0  0  0  0  0  0  0  0  0  0  0
  -15.6121  206.4544  114.7185 H   0  0  0  0  0  0  0  0  0  0  0  0
  -15.4799  204.9648  113.9529 H   0  0  0  0  0  0  0  0  0  0  0  0
  1 15  1  0  0  0  0
  1  2  1  0  0  0  0
  3  4  1  0  0  0  0
  4  5  1  0  0  0  0
  4  8  2  0  0  0  0
  5  6  2  0  0  0  0
  6  7  1  0  0  0  0
  6  1  1  0  0  0  0
  7  8  1  0  0  0  0
  7  9  1  0  0  0  0
  9 10  2  0  0  0  0
  9 14  1  0  0  0  0
 10 11  1  0  0  0  0
 11 12  2  0  0  0  0
 12 13  1  0  0  0  0
 13 14  2  0  0  0  0
 15 16  2  0  0  0  0
 15 17  2  0  0  0  0
 15 18  1  0  0  0  0
 18 19  2  0  0  0  0
 18 23  1  0  0  0  0
 19 20  1  0  0  0  0
 20 21  2  0  0  0  0
 21 22  1  0  0  0  0
 21 24  1  0  0  0  0
 22 23  2  0  0  0  0
 24 25  1  0  0  0  0
 24 26  1  0  0  0  0
M  END
>  <minimizedAffinity>
-0.00039

$$$$
