ZINC00023841


 26 29  0  0  0  0  0  0  0  0999 V2000
  -13.2418  206.2205  118.1857 C   0  0  0  0  0  0  0  0  0  0  0  0
  -12.7619  207.4356  117.6653 C   0  0  0  0  0  0  0  0  0  0  0  0
  -13.3586  208.6933  117.4108 C   0  0  0  0  0  0  0  0  0  0  0  0
  -12.4522  209.4855  116.9165 N   0  0  0  0  0  0  0  0  0  0  0  0
  -11.2324  208.8066  116.8197 N   0  0  0  0  0  0  0  0  0  0  0  0
  -12.6043  210.4365  116.6467 H   0  0  0  0  0  0  0  0  0  0  0  0
  -11.4116  207.5327  117.2817 C   0  0  0  0  0  0  0  0  0  0  0  0
  -10.5961  206.4884  117.4101 N   0  0  0  0  0  0  0  0  0  0  0  0
  -11.0061  205.3411  117.8963 C   0  0  0  0  0  0  0  0  0  0  0  0
  -12.3367  205.1523  118.2980 C   0  0  0  0  0  0  0  0  0  0  0  0
  -12.7775  203.8543  118.8347 C   0  0  0  0  0  0  0  0  0  0  0  0
  -12.7639  203.6559  120.0343 O   0  0  0  0  0  0  0  0  0  0  0  0
  -13.2363  202.7920  117.9152 C   0  0  0  0  0  0  0  0  0  0  0  0
  -13.1103  202.9560  116.5348 C   0  0  0  0  0  0  0  0  0  0  0  0
  -13.5454  201.9623  115.6820 C   0  0  0  0  0  0  0  0  0  0  0  0
  -14.1057  200.8054  116.1922 C   0  0  0  0  0  0  0  0  0  0  0  0
  -14.2348  200.6360  117.5604 C   0  0  0  0  0  0  0  0  0  0  0  0
  -13.8039  201.6215  118.4240 C   0  0  0  0  0  0  0  0  0  0  0  0
  -14.5327  206.0855  118.5677 O   0  0  0  0  0  0  0  0  0  0  0  0
  -15.5231  206.1372  117.5392 C   0  0  0  0  0  0  0  0  0  0  0  0
  -17.4983  202.3589  117.2745 C   0  0  0  0  0  0  0  0  0  0  0  0
  -17.2364  202.9158  118.5117 C   0  0  0  0  0  0  0  0  0  0  0  0
  -16.5968  204.1391  118.5978 C   0  0  0  0  0  0  0  0  0  0  0  0
  -16.2199  204.8040  117.4456 C   0  0  0  0  0  0  0  0  0  0  0  0
  -16.4866  204.2488  116.2081 C   0  0  0  0  0  0  0  0  0  0  0  0
  -17.1214  203.0238  116.1223 C   0  0  0  0  0  0  0  0  0  0  0  0
 21 22  2  0  0  0
 21 26  1  0  0  0
 22 23  1  0  0  0
 23 24  2  0  0  0
 24 25  1  0  0  0
 24 20  1  0  0  0
 25 26  2  0  0  0
 20 19  1  0  0  0
 19  1  1  0  0  0
  1  2  1  0  0  0
  1 10  2  0  0  0
  2  3  2  0  0  0
  2  7  1  0  0  0
  3  4  1  0  0  0
  4  5  1  0  0  0
  4  6  1  0  0  0
  5  7  2  0  0  0
  7  8  1  0  0  0
  8  9  2  0  0  0
  9 10  1  0  0  0
 10 11  1  0  0  0
 11 12  2  0  0  0
 11 13  1  0  0  0
 13 14  2  0  0  0
 13 18  1  0  0  0
 14 15  1  0  0  0
 15 16  2  0  0  0
 16 17  1  0  0  0
 17 18  2  0  0  0
M  END
> <minimizedAffinity>
-0.00119

$$$$
ZINC00023841


 26 29  0  0  0  0  0  0  0  0999 V2000
  -13.9722  205.3580  120.9354 C   0  0  0  0  0  0  0  0  0  0  0  0
  -15.2274  204.9667  120.4368 C   0  0  0  0  0  0  0  0  0  0  0  0
  -16.2855  204.1846  120.9579 C   0  0  0  0  0  0  0  0  0  0  0  0
  -17.2348  204.1334  120.0693 N   0  0  0  0  0  0  0  0  0  0  0  0
  -16.8617  204.8644  118.9358 N   0  0  0  0  0  0  0  0  0  0  0  0
  -18.1008  203.6455  120.1799 H   0  0  0  0  0  0  0  0  0  0  0  0
  -15.6172  205.3868  119.1517 C   0  0  0  0  0  0  0  0  0  0  0  0
  -14.8093  206.1468  118.4155 N   0  0  0  0  0  0  0  0  0  0  0  0
  -13.6340  206.5360  118.8490 C   0  0  0  0  0  0  0  0  0  0  0  0
  -13.1613  206.1593  120.1148 C   0  0  0  0  0  0  0  0  0  0  0  0
  -11.8363  206.6017  120.5789 C   0  0  0  0  0  0  0  0  0  0  0  0
  -11.7308  207.6181  121.2380 O   0  0  0  0  0  0  0  0  0  0  0  0
  -10.6338  205.8103  120.2437 C   0  0  0  0  0  0  0  0  0  0  0  0
  -10.7267  204.7319  119.3624 C   0  0  0  0  0  0  0  0  0  0  0  0
   -9.6010  203.9943  119.0578 C   0  0  0  0  0  0  0  0  0  0  0  0
   -8.3822  204.3213  119.6236 C   0  0  0  0  0  0  0  0  0  0  0  0
   -8.2826  205.3893  120.4994 C   0  0  0  0  0  0  0  0  0  0  0  0
   -9.4001  206.1349  120.8124 C   0  0  0  0  0  0  0  0  0  0  0  0
  -13.5598  204.9770  122.1664 O   0  0  0  0  0  0  0  0  0  0  0  0
  -13.3019  203.5854  122.3630 C   0  0  0  0  0  0  0  0  0  0  0  0
   -9.1524  203.0113  123.1990 C   0  0  0  0  0  0  0  0  0  0  0  0
   -9.8404  204.0488  123.7988 C   0  0  0  0  0  0  0  0  0  0  0  0
  -11.1839  204.2351  123.5283 C   0  0  0  0  0  0  0  0  0  0  0  0
  -11.8378  203.3828  122.6577 C   0  0  0  0  0  0  0  0  0  0  0  0
  -11.1504  202.3420  122.0620 C   0  0  0  0  0  0  0  0  0  0  0  0
   -9.8063  202.1590  122.3285 C   0  0  0  0  0  0  0  0  0  0  0  0
 21 22  2  0  0  0
 21 26  1  0  0  0
 22 23  1  0  0  0
 23 24  2  0  0  0
 24 25  1  0  0  0
 24 20  1  0  0  0
 25 26  2  0  0  0
 20 19  1  0  0  0
 19  1  1  0  0  0
  1  2  1  0  0  0
  1 10  2  0  0  0
  2  3  2  0  0  0
  2  7  1  0  0  0
  3  4  1  0  0  0
  4  5  1  0  0  0
  4  6  1  0  0  0
  5  7  2  0  0  0
  7  8  1  0  0  0
  8  9  2  0  0  0
  9 10  1  0  0  0
 10 11  1  0  0  0
 11 12  2  0  0  0
 11 13  1  0  0  0
 13 14  2  0  0  0
 13 18  1  0  0  0
 14 15  1  0  0  0
 15 16  2  0  0  0
 16 17  1  0  0  0
 17 18  2  0  0  0
M  END
> <minimizedAffinity>
-0.00095

$$$$
ZINC00023841


 26 29  0  0  0  0  0  0  0  0999 V2000
  -11.4241  206.6299  116.2751 C   0  0  0  0  0  0  0  0  0  0  0  0
  -11.4132  205.3072  115.7979 C   0  0  0  0  0  0  0  0  0  0  0  0
  -12.1912  204.1594  116.0811 C   0  0  0  0  0  0  0  0  0  0  0  0
  -11.7551  203.1764  115.3485 N   0  0  0  0  0  0  0  0  0  0  0  0
  -10.6863  203.6135  114.5578 N   0  0  0  0  0  0  0  0  0  0  0  0
  -12.1277  202.2483  115.3499 H   0  0  0  0  0  0  0  0  0  0  0  0
  -10.4644  204.9350  114.8277 C   0  0  0  0  0  0  0  0  0  0  0  0
   -9.5875  205.8232  114.3648 N   0  0  0  0  0  0  0  0  0  0  0  0
   -9.5708  207.0668  114.7819 C   0  0  0  0  0  0  0  0  0  0  0  0
  -10.4755  207.5238  115.7516 C   0  0  0  0  0  0  0  0  0  0  0  0
  -10.4350  208.9218  116.2105 C   0  0  0  0  0  0  0  0  0  0  0  0
  -11.1385  209.7578  115.6770 O   0  0  0  0  0  0  0  0  0  0  0  0
   -9.5386  209.3096  117.3200 C   0  0  0  0  0  0  0  0  0  0  0  0
   -8.6196  208.3928  117.8327 C   0  0  0  0  0  0  0  0  0  0  0  0
   -7.7893  208.7599  118.8719 C   0  0  0  0  0  0  0  0  0  0  0  0
   -7.8663  210.0334  119.4058 C   0  0  0  0  0  0  0  0  0  0  0  0
   -8.7762  210.9480  118.9027 C   0  0  0  0  0  0  0  0  0  0  0  0
   -9.6120  210.5939  117.8641 C   0  0  0  0  0  0  0  0  0  0  0  0
  -12.3205  207.0290  117.2066 O   0  0  0  0  0  0  0  0  0  0  0  0
  -12.1934  206.4657  118.5135 C   0  0  0  0  0  0  0  0  0  0  0  0
  -11.2210  209.5500  121.3043 C   0  0  0  0  0  0  0  0  0  0  0  0
  -12.1889  209.7691  120.3427 C   0  0  0  0  0  0  0  0  0  0  0  0
  -12.5039  208.7707  119.4388 C   0  0  0  0  0  0  0  0  0  0  0  0
  -11.8501  207.5538  119.4982 C   0  0  0  0  0  0  0  0  0  0  0  0
  -10.8856  207.3334  120.4635 C   0  0  0  0  0  0  0  0  0  0  0  0
  -10.5673  208.3331  121.3636 C   0  0  0  0  0  0  0  0  0  0  0  0
 21 22  2  0  0  0
 21 26  1  0  0  0
 22 23  1  0  0  0
 23 24  2  0  0  0
 24 25  1  0  0  0
 24 20  1  0  0  0
 25 26  2  0  0  0
 20 19  1  0  0  0
 19  1  1  0  0  0
  1  2  1  0  0  0
  1 10  2  0  0  0
  2  3  2  0  0  0
  2  7  1  0  0  0
  3  4  1  0  0  0
  4  5  1  0  0  0
  4  6  1  0  0  0
  5  7  2  0  0  0
  7  8  1  0  0  0
  8  9  2  0  0  0
  9 10  1  0  0  0
 10 11  1  0  0  0
 11 12  2  0  0  0
 11 13  1  0  0  0
 13 14  2  0  0  0
 13 18  1  0  0  0
 14 15  1  0  0  0
 15 16  2  0  0  0
 16 17  1  0  0  0
 17 18  2  0  0  0
M  END
> <minimizedAffinity>
-0.00080

$$$$
