
 OpenBabel07192215303D

 25 27  0  0  0  0  0  0  0  0999 V2000
    4.6339   11.8881   23.7577 N   0  0  0  0  0  0  0  0  0  0  0  0
    5.3515   12.9423   24.1095 C   0  0  0  0  0  0  0  0  0  0  0  0
    6.7170   13.0567   23.8278 N   0  0  0  0  0  0  0  0  0  0  0  0
    7.3576   14.2877   24.2727 C   0  0  0  0  0  0  0  0  0  0  0  0
    6.4886   15.2448   24.8811 N   0  0  0  0  0  0  0  0  0  0  0  0
    4.5528   13.9876   24.7908 C   0  0  0  0  0  0  0  0  0  0  0  0
    5.1707   15.2008   25.1785 C   0  0  0  0  0  0  0  0  0  0  0  0
    4.4260   16.1550   25.7809 N   0  0  0  0  0  0  0  0  0  0  0  0
    3.2800   13.5017   24.7592 N   0  0  0  0  0  0  0  0  0  0  0  0
    3.4504   12.2941   24.2281 C   0  0  0  0  0  0  0  0  0  0  0  0
    3.4672   16.0015   25.9434 H   0  0  0  0  0  0  0  0  0  0  0  0
    4.8425   17.0032   26.0570 H   0  0  0  0  0  0  0  0  0  0  0  0
    5.0685   10.6743   23.0953 C   0  0  0  0  0  0  0  0  0  0  0  0
    5.9178    9.8112   24.0119 C   0  0  0  0  0  0  0  0  0  0  0  0
    7.6229    9.9162   22.1575 C   0  0  0  0  0  0  0  0  0  0  0  0
    7.1742    9.5613   23.6056 C   0  0  0  0  0  0  0  0  0  0  0  0
    2.3736   11.2683   23.8780 C   0  0  0  0  0  0  0  0  0  0  0  0
    1.0880   11.8132   23.2788 C   0  0  0  0  0  0  0  0  0  0  0  0
    0.9925   12.6199   22.1486 C   0  0  0  0  0  0  0  0  0  0  0  0
   -0.2558   13.0444   21.6890 C   0  0  0  0  0  0  0  0  0  0  0  0
   -0.0359   11.4012   24.0387 C   0  0  0  0  0  0  0  0  0  0  0  0
   -1.2825   11.8550   23.5634 C   0  0  0  0  0  0  0  0  0  0  0  0
   -1.3925   12.6531   22.4104 C   0  0  0  0  0  0  0  0  0  0  0  0
   -2.6309   13.1042   21.9722 O   0  0  0  0  0  0  0  0  0  0  0  0
   -3.3523   14.1090   22.6788 C   0  0  0  0  0  0  0  0  0  0  0  0
  1  2  1  0  0  0  0
  1 13  1  0  0  0  0
  2  3  1  0  0  0  0
  3  4  2  0  0  0  0
  5  4  1  0  0  0  0
  6  7  1  0  0  0  0
  6  2  2  0  0  0  0
  7  5  2  0  0  0  0
  8  7  1  0  0  0  0
  8 11  1  0  0  0  0
  8 12  1  0  0  0  0
  9 10  2  0  0  0  0
  9  6  1  0  0  0  0
 10  1  1  0  0  0  0
 14 13  1  0  0  0  0
 15 16  1  0  0  0  0
 16 14  1  0  0  0  0
 17 18  1  0  0  0  0
 17 10  1  0  0  0  0
 18 19  2  0  0  0  0
 18 21  1  0  0  0  0
 19 20  1  0  0  0  0
 20 23  2  0  0  0  0
 21 22  2  0  0  0  0
 22 23  1  0  0  0  0
 23 24  1  0  0  0  0
 24 25  1  0  0  0  0
M  END
>  <minimizedAffinity>
-9.28171

$$$$
