
 OpenBabel07192215303D

 26 29  0  0  0  0  0  0  0  0999 V2000
    6.2642   11.7489   23.4124 N   0  0  0  0  0  0  0  0  0  0  0  0
    6.5906   12.9704   23.9141 C   0  0  0  0  0  0  0  0  0  0  0  0
    7.7912   13.5992   23.9383 N   0  0  0  0  0  0  0  0  0  0  0  0
    7.8357   14.8278   24.4994 C   0  0  0  0  0  0  0  0  0  0  0  0
    6.7295   15.4051   25.0255 N   0  0  0  0  0  0  0  0  0  0  0  0
    5.4495   13.5592   24.4366 C   0  0  0  0  0  0  0  0  0  0  0  0
    5.5158   14.8005   25.0184 C   0  0  0  0  0  0  0  0  0  0  0  0
    4.4277   15.4215   25.5760 N   0  0  0  0  0  0  0  0  0  0  0  0
    4.4587   12.6747   24.2207 N   0  0  0  0  0  0  0  0  0  0  0  0
    4.9315   11.5695   23.6079 C   0  0  0  0  0  0  0  0  0  0  0  0
    3.5493   14.9770   25.5675 H   0  0  0  0  0  0  0  0  0  0  0  0
    4.5250   16.3118   25.9848 H   0  0  0  0  0  0  0  0  0  0  0  0
    7.1783   10.8067   22.7561 C   0  0  0  0  0  0  0  0  0  0  0  0
    7.8650    9.9818   23.8615 C   0  0  0  0  0  0  0  0  0  0  0  0
    7.7305    7.5243   24.6176 C   0  0  0  0  0  0  0  0  0  0  0  0
    8.0834    8.5047   23.4993 C   0  0  0  0  0  0  0  0  0  0  0  0
    4.1682   10.3374   23.1786 C   0  0  0  0  0  0  0  0  0  0  0  0
    2.8857   10.2589   23.9925 C   0  0  0  0  0  0  0  0  0  0  0  0
    1.7061   10.9103   23.5641 C   0  0  0  0  0  0  0  0  0  0  0  0
    0.5883   10.8028   24.3837 C   0  0  0  0  0  0  0  0  0  0  0  0
    2.9093    9.5409   25.1990 C   0  0  0  0  0  0  0  0  0  0  0  0
   -0.6827   11.3272   24.2152 O   0  0  0  0  0  0  0  0  0  0  0  0
    1.7634    9.4560   25.9980 C   0  0  0  0  0  0  0  0  0  0  0  0
    0.6209   10.1070   25.5606 C   0  0  0  0  0  0  0  0  0  0  0  0
   -0.6350   10.1699   26.1638 O   0  0  0  0  0  0  0  0  0  0  0  0
   -1.5041   10.9479   25.3299 C   0  0  0  0  0  0  0  0  0  0  0  0
  1  2  1  0  0  0  0
  1 13  1  0  0  0  0
  2  3  1  0  0  0  0
  3  4  2  0  0  0  0
  5  4  1  0  0  0  0
  6  7  1  0  0  0  0
  6  2  2  0  0  0  0
  7  5  2  0  0  0  0
  8  7  1  0  0  0  0
  8 11  1  0  0  0  0
  8 12  1  0  0  0  0
  9 10  2  0  0  0  0
  9  6  1  0  0  0  0
 10  1  1  0  0  0  0
 14 13  1  0  0  0  0
 15 16  1  0  0  0  0
 16 14  1  0  0  0  0
 17 18  1  0  0  0  0
 17 10  1  0  0  0  0
 18 19  1  0  0  0  0
 19 20  2  0  0  0  0
 20 22  1  0  0  0  0
 21 18  2  0  0  0  0
 21 23  1  0  0  0  0
 22 26  1  0  0  0  0
 23 24  2  0  0  0  0
 24 20  1  0  0  0  0
 24 25  1  0  0  0  0
 25 26  1  0  0  0  0
M  END
>  <minimizedAffinity>
-9.58435

$$$$
