
 OpenBabel07192215303D

 29 31  0  0  0  0  0  0  0  0999 V2000
    2.0098   10.6145   24.7222 C   0  0  0  0  0  0  0  0  0  0  0  0
    2.2584    9.6041   25.5621 N   0  0  0  0  0  0  0  0  0  0  0  0
    1.1749    9.6375   26.3709 C   0  0  0  0  0  0  0  0  0  0  0  0
    0.7625    8.8906   27.5499 C   0  0  0  0  0  0  0  0  0  0  0  0
    1.5337    7.8993   28.0353 N   0  0  0  0  0  0  0  0  0  0  0  0
    0.2889   10.7238   25.9702 C   0  0  0  0  0  0  0  0  0  0  0  0
   -0.8638   10.9691   26.6176 N   0  0  0  0  0  0  0  0  0  0  0  0
   -1.2112   10.1891   27.6668 C   0  0  0  0  0  0  0  0  0  0  0  0
   -0.4277    9.1758   28.1160 N   0  0  0  0  0  0  0  0  0  0  0  0
    0.8549   11.2825   24.9201 N   0  0  0  0  0  0  0  0  0  0  0  0
    2.4010    7.6994   27.6145 H   0  0  0  0  0  0  0  0  0  0  0  0
    1.2303    7.3745   28.8111 H   0  0  0  0  0  0  0  0  0  0  0  0
    2.9148   10.9186   23.5548 C   0  0  0  0  0  0  0  0  0  0  0  0
    6.5491   12.0823   23.6579 C   0  0  0  0  0  0  0  0  0  0  0  0
    5.3702   11.3269   23.4902 C   0  0  0  0  0  0  0  0  0  0  0  0
    6.4135   13.4404   24.1406 C   0  0  0  0  0  0  0  0  0  0  0  0
    5.0871   13.9494   24.4478 C   0  0  0  0  0  0  0  0  0  0  0  0
    3.9488   13.1358   24.2865 C   0  0  0  0  0  0  0  0  0  0  0  0
    4.1127   11.8171   23.8043 C   0  0  0  0  0  0  0  0  0  0  0  0
    7.9777   10.1487   23.3422 C   0  0  0  0  0  0  0  0  0  0  0  0
    7.8209   11.5837   23.4693 O   0  0  0  0  0  0  0  0  0  0  0  0
    7.4910   14.2354   24.3268 O   0  0  0  0  0  0  0  0  0  0  0  0
    8.1044   14.2017   25.6296 C   0  0  0  0  0  0  0  0  0  0  0  0
    5.0889   15.2749   24.8370 O   0  0  0  0  0  0  0  0  0  0  0  0
    4.5356   15.6820   26.0574 C   0  0  0  0  0  0  0  0  0  0  0  0
    0.3161   12.4575   24.2342 C   0  0  0  0  0  0  0  0  0  0  0  0
   -0.9673   11.9888   23.5511 C   0  0  0  0  0  0  0  0  0  0  0  0
   -1.2199   12.6136   22.1907 C   0  0  0  0  0  0  0  0  0  0  0  0
    0.1594   12.9472   21.6096 C   0  0  0  0  0  0  0  0  0  0  0  0
  1 10  1  0  0  0  0
  2  1  2  0  0  0  0
  2  3  1  0  0  0  0
  3  4  2  0  0  0  0
  3  6  1  0  0  0  0
  4  9  1  0  0  0  0
  5  4  1  0  0  0  0
  5 11  1  0  0  0  0
  5 12  1  0  0  0  0
  6  7  2  0  0  0  0
  7  8  1  0  0  0  0
  9  8  2  0  0  0  0
 10  6  1  0  0  0  0
 10 26  1  0  0  0  0
 13 19  1  0  0  0  0
 13  1  1  0  0  0  0
 14 16  1  0  0  0  0
 15 19  1  0  0  0  0
 15 14  2  0  0  0  0
 16 17  2  0  0  0  0
 16 22  1  0  0  0  0
 17 24  1  0  0  0  0
 18 17  1  0  0  0  0
 19 18  2  0  0  0  0
 20 21  1  0  0  0  0
 21 14  1  0  0  0  0
 23 22  1  0  0  0  0
 24 25  1  0  0  0  0
 27 26  1  0  0  0  0
 28 29  1  0  0  0  0
 28 27  1  0  0  0  0
M  END
>  <minimizedAffinity>
-8.81607

$$$$
