
 OpenBabel07192215303D

 30 32  0  0  0  0  0  0  0  0999 V2000
    4.8101   11.6792   23.6297 C   0  0  0  0  0  0  0  0  0  0  0  0
    4.3660   12.7638   24.2576 N   0  0  0  0  0  0  0  0  0  0  0  0
    5.4032   13.5496   24.4567 C   0  0  0  0  0  0  0  0  0  0  0  0
    5.5249   14.7967   25.0556 C   0  0  0  0  0  0  0  0  0  0  0  0
    4.3862   15.4883   25.6701 N   0  0  0  0  0  0  0  0  0  0  0  0
    6.5117   12.9446   23.8851 C   0  0  0  0  0  0  0  0  0  0  0  0
    7.7151   13.5525   23.9063 N   0  0  0  0  0  0  0  0  0  0  0  0
    7.7820   14.7658   24.4924 C   0  0  0  0  0  0  0  0  0  0  0  0
    6.7149   15.3797   25.0489 N   0  0  0  0  0  0  0  0  0  0  0  0
    6.1120   11.7774   23.3858 N   0  0  0  0  0  0  0  0  0  0  0  0
    3.4985   15.0626   25.6796 H   0  0  0  0  0  0  0  0  0  0  0  0
    4.5097   16.3781   26.0730 H   0  0  0  0  0  0  0  0  0  0  0  0
    3.9492   10.5203   23.2079 C   0  0  0  0  0  0  0  0  0  0  0  0
    0.3626   11.0302   24.5439 C   0  0  0  0  0  0  0  0  0  0  0  0
    1.4986   11.2343   23.7514 C   0  0  0  0  0  0  0  0  0  0  0  0
    0.3643   10.0405   25.5166 C   0  0  0  0  0  0  0  0  0  0  0  0
    1.4653    9.2440   25.7255 C   0  0  0  0  0  0  0  0  0  0  0  0
    2.5907    9.4450   24.9474 C   0  0  0  0  0  0  0  0  0  0  0  0
    2.6355   10.4218   23.9735 C   0  0  0  0  0  0  0  0  0  0  0  0
    1.4884   12.5036   22.5490 Cl  0  0  0  0  0  0  0  0  0  0  0  0
   -1.8222   11.8226   23.4902 C   0  0  0  0  0  0  0  0  0  0  0  0
   -0.8351   11.8163   24.4939 O   0  0  0  0  0  0  0  0  0  0  0  0
   -0.8129    9.8617   26.2819 O   0  0  0  0  0  0  0  0  0  0  0  0
   -0.8830   10.4319   27.6000 C   0  0  0  0  0  0  0  0  0  0  0  0
    1.4247    8.2011   26.7029 O   0  0  0  0  0  0  0  0  0  0  0  0
    2.3391    8.1505   27.8134 C   0  0  0  0  0  0  0  0  0  0  0  0
    6.9340   10.7723   22.7005 C   0  0  0  0  0  0  0  0  0  0  0  0
    7.9019   10.1442   23.6760 C   0  0  0  0  0  0  0  0  0  0  0  0
    7.6966    8.7229   24.1957 C   0  0  0  0  0  0  0  0  0  0  0  0
    6.6020    7.8496   23.6060 C   0  0  0  0  0  0  0  0  0  0  0  0
  1 10  1  0  0  0  0
  2  1  2  0  0  0  0
  2  3  1  0  0  0  0
  3  4  2  0  0  0  0
  3  6  1  0  0  0  0
  4  9  1  0  0  0  0
  5  4  1  0  0  0  0
  5 11  1  0  0  0  0
  5 12  1  0  0  0  0
  6  7  2  0  0  0  0
  7  8  1  0  0  0  0
  9  8  2  0  0  0  0
 10  6  1  0  0  0  0
 10 27  1  0  0  0  0
 13 19  1  0  0  0  0
 13  1  1  0  0  0  0
 14 22  1  0  0  0  0
 15 20  1  0  0  0  0
 15 14  2  0  0  0  0
 16 14  1  0  0  0  0
 16 23  1  0  0  0  0
 17 16  2  0  0  0  0
 18 19  2  0  0  0  0
 18 17  1  0  0  0  0
 19 15  1  0  0  0  0
 22 21  1  0  0  0  0
 24 23  1  0  0  0  0
 25 17  1  0  0  0  0
 26 25  1  0  0  0  0
 27 28  1  0  0  0  0
 29 28  2  0  0  0  0
 30 29  1  0  0  0  0
M  END
>  <minimizedAffinity>
-9.34867

$$$$
