


 26 29  0  0  0  0  0  0  0  0999 V2000
    6.0958   11.8446   23.4715 N   0  0  0  0  0  0  0  0  0  0  0  0
    6.5319   13.0383   23.9563 C   0  0  0  0  0  0  0  0  0  0  0  0
    7.7772   13.5735   23.9360 N   0  0  0  0  0  0  0  0  0  0  0  0
    7.9350   14.7959   24.4899 C   0  0  0  0  0  0  0  0  0  0  0  0
    6.8953   15.4571   25.0517 N   0  0  0  0  0  0  0  0  0  0  0  0
    5.4582   13.7136   24.5157 C   0  0  0  0  0  0  0  0  0  0  0  0
    5.6394   14.9470   25.0894 C   0  0  0  0  0  0  0  0  0  0  0  0
    4.6222   15.6504   25.6819 N   0  0  0  0  0  0  0  0  0  0  0  0
    4.3957   12.9071   24.3382 N   0  0  0  0  0  0  0  0  0  0  0  0
    4.7609   11.7680   23.7141 C   0  0  0  0  0  0  0  0  0  0  0  0
    3.7127   15.2744   25.7059 H   0  0  0  0  0  0  0  0  0  0  0  0
    4.8015   16.5313   26.0832 H   0  0  0  0  0  0  0  0  0  0  0  0
    6.9117   10.8341   22.7880 C   0  0  0  0  0  0  0  0  0  0  0  0
    7.6860   10.0557   23.8688 C   0  0  0  0  0  0  0  0  0  0  0  0
    7.7666    7.5752   24.5544 C   0  0  0  0  0  0  0  0  0  0  0  0
    8.0453    8.6159   23.4701 C   0  0  0  0  0  0  0  0  0  0  0  0
    3.8911   10.5972   23.3169 C   0  0  0  0  0  0  0  0  0  0  0  0
    2.4351   10.9948   23.5049 C   0  0  0  0  0  0  0  0  0  0  0  0
    1.5645   10.2247   24.3101 C   0  0  0  0  0  0  0  0  0  0  0  0
    0.2447   10.6513   24.4055 C   0  0  0  0  0  0  0  0  0  0  0  0
    1.9682   12.1372   22.8352 C   0  0  0  0  0  0  0  0  0  0  0  0
   -0.8107   10.1018   25.1146 O   0  0  0  0  0  0  0  0  0  0  0  0
    0.6317   12.5348   22.9551 C   0  0  0  0  0  0  0  0  0  0  0  0
   -0.2041   11.7615   23.7450 C   0  0  0  0  0  0  0  0  0  0  0  0
   -1.5577   11.9449   24.0266 O   0  0  0  0  0  0  0  0  0  0  0  0
   -1.9880   10.8963   24.9047 C   0  0  0  0  0  0  0  0  0  0  0  0
 17 18  1  0  0  0
 17 10  1  0  0  0
 21 18  2  0  0  0
 21 23  1  0  0  0
 18 19  1  0  0  0
  9 10  2  0  0  0
  9  6  1  0  0  0
 15 16  1  0  0  0
 10  1  1  0  0  0
 16 14  1  0  0  0
 23 24  2  0  0  0
 19 20  2  0  0  0
  8  7  1  0  0  0
 24 20  1  0  0  0
 24 25  1  0  0  0
 20 22  1  0  0  0
  6  7  1  0  0  0
  6  2  2  0  0  0
  7  5  2  0  0  0
  1  2  1  0  0  0
  1 13  1  0  0  0
 25 26  1  0  0  0
 22 26  1  0  0  0
 14 13  1  0  0  0
  2  3  1  0  0  0
  5  4  1  0  0  0
  3  4  2  0  0  0
  8 11  1  0  0  0
  8 12  1  0  0  0
M  END
> <minimizedAffinity>
-9.86898

$$$$



 26 29  0  0  0  0  0  0  0  0999 V2000
    6.2642   11.7489   23.4124 N   0  0  0  0  0  0  0  0  0  0  0  0
    6.5906   12.9704   23.9141 C   0  0  0  0  0  0  0  0  0  0  0  0
    7.7912   13.5992   23.9383 N   0  0  0  0  0  0  0  0  0  0  0  0
    7.8357   14.8278   24.4994 C   0  0  0  0  0  0  0  0  0  0  0  0
    6.7295   15.4051   25.0255 N   0  0  0  0  0  0  0  0  0  0  0  0
    5.4495   13.5592   24.4366 C   0  0  0  0  0  0  0  0  0  0  0  0
    5.5158   14.8005   25.0184 C   0  0  0  0  0  0  0  0  0  0  0  0
    4.4277   15.4215   25.5760 N   0  0  0  0  0  0  0  0  0  0  0  0
    4.4587   12.6747   24.2207 N   0  0  0  0  0  0  0  0  0  0  0  0
    4.9315   11.5695   23.6079 C   0  0  0  0  0  0  0  0  0  0  0  0
    3.5493   14.9770   25.5675 H   0  0  0  0  0  0  0  0  0  0  0  0
    4.5250   16.3118   25.9848 H   0  0  0  0  0  0  0  0  0  0  0  0
    7.1783   10.8067   22.7561 C   0  0  0  0  0  0  0  0  0  0  0  0
    7.8650    9.9818   23.8615 C   0  0  0  0  0  0  0  0  0  0  0  0
    7.7305    7.5243   24.6176 C   0  0  0  0  0  0  0  0  0  0  0  0
    8.0834    8.5047   23.4993 C   0  0  0  0  0  0  0  0  0  0  0  0
    4.1682   10.3374   23.1786 C   0  0  0  0  0  0  0  0  0  0  0  0
    2.8857   10.2589   23.9925 C   0  0  0  0  0  0  0  0  0  0  0  0
    1.7061   10.9103   23.5641 C   0  0  0  0  0  0  0  0  0  0  0  0
    0.5883   10.8028   24.3837 C   0  0  0  0  0  0  0  0  0  0  0  0
    2.9093    9.5409   25.1990 C   0  0  0  0  0  0  0  0  0  0  0  0
   -0.6827   11.3272   24.2152 O   0  0  0  0  0  0  0  0  0  0  0  0
    1.7634    9.4560   25.9980 C   0  0  0  0  0  0  0  0  0  0  0  0
    0.6209   10.1070   25.5606 C   0  0  0  0  0  0  0  0  0  0  0  0
   -0.6350   10.1699   26.1638 O   0  0  0  0  0  0  0  0  0  0  0  0
   -1.5041   10.9479   25.3299 C   0  0  0  0  0  0  0  0  0  0  0  0
 17 18  1  0  0  0
 17 10  1  0  0  0
 21 18  2  0  0  0
 21 23  1  0  0  0
 18 19  1  0  0  0
  9 10  2  0  0  0
  9  6  1  0  0  0
 15 16  1  0  0  0
 10  1  1  0  0  0
 16 14  1  0  0  0
 23 24  2  0  0  0
 19 20  2  0  0  0
  8  7  1  0  0  0
 24 20  1  0  0  0
 24 25  1  0  0  0
 20 22  1  0  0  0
  6  7  1  0  0  0
  6  2  2  0  0  0
  7  5  2  0  0  0
  1  2  1  0  0  0
  1 13  1  0  0  0
 25 26  1  0  0  0
 22 26  1  0  0  0
 14 13  1  0  0  0
  2  3  1  0  0  0
  5  4  1  0  0  0
  3  4  2  0  0  0
  8 11  1  0  0  0
  8 12  1  0  0  0
M  END
> <minimizedAffinity>
-9.58435

$$$$



 26 29  0  0  0  0  0  0  0  0999 V2000
    5.3806   11.7942   23.3561 N   0  0  0  0  0  0  0  0  0  0  0  0
    5.6416   12.9606   24.0054 C   0  0  0  0  0  0  0  0  0  0  0  0
    4.7818   13.8442   24.5691 N   0  0  0  0  0  0  0  0  0  0  0  0
    5.3154   14.9339   25.1641 C   0  0  0  0  0  0  0  0  0  0  0  0
    6.6533   15.1420   25.1890 N   0  0  0  0  0  0  0  0  0  0  0  0
    7.0135   13.1571   24.0387 C   0  0  0  0  0  0  0  0  0  0  0  0
    7.5378   14.2781   24.6322 C   0  0  0  0  0  0  0  0  0  0  0  0
    8.8831   14.5403   24.6722 N   0  0  0  0  0  0  0  0  0  0  0  0
    7.5439   12.0887   23.4159 N   0  0  0  0  0  0  0  0  0  0  0  0
    6.5727   11.2549   22.9893 C   0  0  0  0  0  0  0  0  0  0  0  0
    9.5200   13.9090   24.2661 H   0  0  0  0  0  0  0  0  0  0  0  0
    9.2121   15.3600   25.1072 H   0  0  0  0  0  0  0  0  0  0  0  0
    4.0553   11.2107   23.1173 C   0  0  0  0  0  0  0  0  0  0  0  0
    3.3713   11.0389   24.4872 C   0  0  0  0  0  0  0  0  0  0  0  0
    1.4751   12.6091   23.7332 C   0  0  0  0  0  0  0  0  0  0  0  0
    1.8628   11.3315   24.4773 C   0  0  0  0  0  0  0  0  0  0  0  0
    6.7209    9.9438   22.2517 C   0  0  0  0  0  0  0  0  0  0  0  0
    6.8005    8.8225   23.2763 C   0  0  0  0  0  0  0  0  0  0  0  0
    5.6401    8.1336   23.6987 C   0  0  0  0  0  0  0  0  0  0  0  0
    5.8056    7.1389   24.6557 C   0  0  0  0  0  0  0  0  0  0  0  0
    8.0579    8.5038   23.8138 C   0  0  0  0  0  0  0  0  0  0  0  0
    4.8608    6.3128   25.2419 O   0  0  0  0  0  0  0  0  0  0  0  0
    8.1845    7.4961   24.7767 C   0  0  0  0  0  0  0  0  0  0  0  0
    7.0329    6.8387   25.1793 C   0  0  0  0  0  0  0  0  0  0  0  0
    6.8938    5.8075   26.1080 O   0  0  0  0  0  0  0  0  0  0  0  0
    5.5096    5.4403   26.1794 C   0  0  0  0  0  0  0  0  0  0  0  0
 17 18  1  0  0  0
 17 10  1  0  0  0
 21 18  2  0  0  0
 21 23  1  0  0  0
 18 19  1  0  0  0
  9 10  2  0  0  0
  9  6  1  0  0  0
 15 16  1  0  0  0
 10  1  1  0  0  0
 16 14  1  0  0  0
 23 24  2  0  0  0
 19 20  2  0  0  0
  8  7  1  0  0  0
 24 20  1  0  0  0
 24 25  1  0  0  0
 20 22  1  0  0  0
  6  7  1  0  0  0
  6  2  2  0  0  0
  7  5  2  0  0  0
  1  2  1  0  0  0
  1 13  1  0  0  0
 25 26  1  0  0  0
 22 26  1  0  0  0
 14 13  1  0  0  0
  2  3  1  0  0  0
  5  4  1  0  0  0
  3  4  2  0  0  0
  8 11  1  0  0  0
  8 12  1  0  0  0
M  END
> <minimizedAffinity>
-9.30588

$$$$
