
 OpenBabel07192215303D

 31 33  0  0  0  0  0  0  0  0999 V2000
    4.9681   11.6085   23.5569 C   0  0  0  0  0  0  0  0  0  0  0  0
    4.3614   12.6445   24.1503 N   0  0  0  0  0  0  0  0  0  0  0  0
    5.3054   13.5365   24.4405 C   0  0  0  0  0  0  0  0  0  0  0  0
    5.3330   14.7643   25.0469 C   0  0  0  0  0  0  0  0  0  0  0  0
    4.1473   15.4035   25.5593 N   0  0  0  0  0  0  0  0  0  0  0  0
    6.4829   13.0394   23.9771 C   0  0  0  0  0  0  0  0  0  0  0  0
    7.6700   13.6384   24.0800 N   0  0  0  0  0  0  0  0  0  0  0  0
    7.6364   14.8490   24.6658 C   0  0  0  0  0  0  0  0  0  0  0  0
    6.4992   15.3995   25.1269 N   0  0  0  0  0  0  0  0  0  0  0  0
    6.3056   11.8510   23.4406 N   0  0  0  0  0  0  0  0  0  0  0  0
    3.2783   14.9440   25.5061 H   0  0  0  0  0  0  0  0  0  0  0  0
    4.2064   16.2997   25.9625 H   0  0  0  0  0  0  0  0  0  0  0  0
    4.2426   10.3758   23.0353 C   0  0  0  0  0  0  0  0  0  0  0  0
    1.4534   11.9116   22.8122 Cl  0  0  0  0  0  0  0  0  0  0  0  0
    1.8014   10.5642   23.9051 C   0  0  0  0  0  0  0  0  0  0  0  0
    0.8198   10.1048   24.8012 C   0  0  0  0  0  0  0  0  0  0  0  0
    1.0687    9.0880   25.6936 C   0  0  0  0  0  0  0  0  0  0  0  0
    2.3039    8.4845   25.7491 C   0  0  0  0  0  0  0  0  0  0  0  0
    3.3130    8.9146   24.8749 C   0  0  0  0  0  0  0  0  0  0  0  0
    3.0765    9.9470   23.9411 C   0  0  0  0  0  0  0  0  0  0  0  0
   -0.5157   10.5565   25.0038 O   0  0  0  0  0  0  0  0  0  0  0  0
   -1.7033   11.0801   24.7626 C   0  0  0  0  0  0  0  0  0  0  0  0
   -0.0295    8.7056   26.5367 O   0  0  0  0  0  0  0  0  0  0  0  0
   -0.0702    9.1008   27.9381 C   0  0  0  0  0  0  0  0  0  0  0  0
    2.4568    7.4723   26.6786 O   0  0  0  0  0  0  0  0  0  0  0  0
    2.9693    6.1673   26.3310 C   0  0  0  0  0  0  0  0  0  0  0  0
    7.3336   10.9855   22.8616 C   0  0  0  0  0  0  0  0  0  0  0  0
    7.9082   10.0433   23.9253 C   0  0  0  0  0  0  0  0  0  0  0  0
    8.0078    8.6144   23.4079 C   0  0  0  0  0  0  0  0  0  0  0  0
    7.1496    7.5980   24.1743 C   0  0  0  0  0  0  0  0  0  0  0  0
    6.5418    6.7485   24.7325 C   0  0  0  0  0  0  0  0  0  0  0  0
  1 10  1  0  0  0  0
  2  1  2  0  0  0  0
  2  3  1  0  0  0  0
  3  4  2  0  0  0  0
  3  6  1  0  0  0  0
  4  9  1  0  0  0  0
  5  4  1  0  0  0  0
  5 11  1  0  0  0  0
  5 12  1  0  0  0  0
  6  7  2  0  0  0  0
  7  8  1  0  0  0  0
  9  8  2  0  0  0  0
 10  6  1  0  0  0  0
 10 27  1  0  0  0  0
 13 20  1  0  0  0  0
 13  1  1  0  0  0  0
 14 15  1  0  0  0  0
 15 16  1  0  0  0  0
 16 17  2  0  0  0  0
 16 21  1  0  0  0  0
 17 23  1  0  0  0  0
 18 25  1  0  0  0  0
 18 17  1  0  0  0  0
 19 18  2  0  0  0  0
 20 19  1  0  0  0  0
 20 15  2  0  0  0  0
 21 22  1  0  0  0  0
 24 23  1  0  0  0  0
 26 25  1  0  0  0  0
 28 27  1  0  0  0  0
 29 28  1  0  0  0  0
 30 29  1  0  0  0  0
 31 30  3  0  0  0  0
M  END
>  <minimizedAffinity>
-9.00786

$$$$
