
 OpenBabel07192215303D

 25 27  0  0  0  0  0  0  0  0999 V2000
    5.6016   11.8747   23.5778 N   0  0  0  0  0  0  0  0  0  0  0  0
    6.2198   12.9699   23.9688 C   0  0  0  0  0  0  0  0  0  0  0  0
    7.4810   13.4042   23.8930 N   0  0  0  0  0  0  0  0  0  0  0  0
    7.8004   14.5977   24.4322 C   0  0  0  0  0  0  0  0  0  0  0  0
    6.8974   15.4416   24.9846 N   0  0  0  0  0  0  0  0  0  0  0  0
    5.1803   13.8150   24.5486 C   0  0  0  0  0  0  0  0  0  0  0  0
    5.6026   15.0728   25.1074 C   0  0  0  0  0  0  0  0  0  0  0  0
    4.6815   15.8440   25.6855 N   0  0  0  0  0  0  0  0  0  0  0  0
    4.0299   13.1639   24.4439 N   0  0  0  0  0  0  0  0  0  0  0  0
    4.3174   11.9708   23.8852 C   0  0  0  0  0  0  0  0  0  0  0  0
    3.7499   15.5326   25.7519 H   0  0  0  0  0  0  0  0  0  0  0  0
    4.9329   16.7249   26.0461 H   0  0  0  0  0  0  0  0  0  0  0  0
    6.2524   10.7488   22.8892 C   0  0  0  0  0  0  0  0  0  0  0  0
    7.0738    9.9746   23.9179 C   0  0  0  0  0  0  0  0  0  0  0  0
    8.1232    7.6793   23.9948 C   0  0  0  0  0  0  0  0  0  0  0  0
    8.0185    9.1214   23.4751 C   0  0  0  0  0  0  0  0  0  0  0  0
    3.3056   10.9007   23.5633 C   0  0  0  0  0  0  0  0  0  0  0  0
    1.5205   12.3249   22.5050 C   0  0  0  0  0  0  0  0  0  0  0  0
    1.9085   11.4800   23.5585 C   0  0  0  0  0  0  0  0  0  0  0  0
    1.0315   11.1229   24.5633 C   0  0  0  0  0  0  0  0  0  0  0  0
    0.2310   12.8363   22.4932 C   0  0  0  0  0  0  0  0  0  0  0  0
   -0.6436   12.4922   23.5042 C   0  0  0  0  0  0  0  0  0  0  0  0
   -0.2504   11.6191   24.5103 C   0  0  0  0  0  0  0  0  0  0  0  0
   -1.0981   11.2814   25.5301 O   0  0  0  0  0  0  0  0  0  0  0  0
   -0.6856   10.5243   26.6729 C   0  0  0  0  0  0  0  0  0  0  0  0
  1  2  1  0  0  0  0
  1 13  1  0  0  0  0
  2  3  1  0  0  0  0
  3  4  2  0  0  0  0
  5  4  1  0  0  0  0
  6  7  1  0  0  0  0
  6  2  2  0  0  0  0
  7  5  2  0  0  0  0
  8  7  1  0  0  0  0
  8 11  1  0  0  0  0
  8 12  1  0  0  0  0
  9 10  2  0  0  0  0
  9  6  1  0  0  0  0
 10  1  1  0  0  0  0
 14 13  1  0  0  0  0
 15 16  1  0  0  0  0
 16 14  1  0  0  0  0
 17 19  1  0  0  0  0
 17 10  1  0  0  0  0
 18 19  2  0  0  0  0
 18 21  1  0  0  0  0
 19 20  1  0  0  0  0
 20 23  2  0  0  0  0
 21 22  2  0  0  0  0
 22 23  1  0  0  0  0
 23 24  1  0  0  0  0
 24 25  1  0  0  0  0
M  END
>  <minimizedAffinity>
-9.65175

$$$$
