
 OpenBabel07192215303D

 32 34  0  0  0  0  0  0  0  0999 V2000
    4.7816   11.9274   23.6973 C   0  0  0  0  0  0  0  0  0  0  0  0
    4.3809   13.0099   24.2988 N   0  0  0  0  0  0  0  0  0  0  0  0
    5.5912   13.7828   24.5122 C   0  0  0  0  0  0  0  0  0  0  0  0
    5.7823   14.9966   25.0700 C   0  0  0  0  0  0  0  0  0  0  0  0
    4.7631   15.8246   25.6752 N   0  0  0  0  0  0  0  0  0  0  0  0
    6.6686   13.1572   23.9912 C   0  0  0  0  0  0  0  0  0  0  0  0
    7.8705   13.6469   23.9726 N   0  0  0  0  0  0  0  0  0  0  0  0
    8.0311   14.8286   24.5300 C   0  0  0  0  0  0  0  0  0  0  0  0
    7.0305   15.4428   25.0642 N   0  0  0  0  0  0  0  0  0  0  0  0
    6.2148   11.9417   23.4081 N   0  0  0  0  0  0  0  0  0  0  0  0
    9.2427   15.4282   24.5716 F   0  0  0  0  0  0  0  0  0  0  0  0
    3.8275   15.5188   25.6939 H   0  0  0  0  0  0  0  0  0  0  0  0
    5.0048   16.6942   26.0684 H   0  0  0  0  0  0  0  0  0  0  0  0
    3.9137   10.7765   23.2748 C   0  0  0  0  0  0  0  0  0  0  0  0
    0.9792   12.1628   23.3890 Cl  0  0  0  0  0  0  0  0  0  0  0  0
    1.6023   10.8616   24.4136 C   0  0  0  0  0  0  0  0  0  0  0  0
    0.8359   10.3302   25.4310 C   0  0  0  0  0  0  0  0  0  0  0  0
    1.2801    9.3511   26.2566 C   0  0  0  0  0  0  0  0  0  0  0  0
    2.5028    8.8310   26.1678 C   0  0  0  0  0  0  0  0  0  0  0  0
    3.3459    9.3130   25.1786 C   0  0  0  0  0  0  0  0  0  0  0  0
    2.9145   10.3191   24.3131 C   0  0  0  0  0  0  0  0  0  0  0  0
   -0.4632   10.6668   25.7965 O   0  0  0  0  0  0  0  0  0  0  0  0
   -1.5601   10.7094   24.9450 C   0  0  0  0  0  0  0  0  0  0  0  0
    0.3841    8.8832   27.2187 O   0  0  0  0  0  0  0  0  0  0  0  0
   -0.1800    7.5879   27.0590 C   0  0  0  0  0  0  0  0  0  0  0  0
    2.7875    7.7700   27.0529 O   0  0  0  0  0  0  0  0  0  0  0  0
    3.3790    6.6022   26.4532 C   0  0  0  0  0  0  0  0  0  0  0  0
    7.0438   10.8893   22.7934 C   0  0  0  0  0  0  0  0  0  0  0  0
    7.7310   10.0595   23.8624 C   0  0  0  0  0  0  0  0  0  0  0  0
    8.0554    8.6243   23.5482 C   0  0  0  0  0  0  0  0  0  0  0  0
    7.4277    7.4896   24.3723 C   0  0  0  0  0  0  0  0  0  0  0  0
    6.9355    6.5885   24.9522 C   0  0  0  0  0  0  0  0  0  0  0  0
  1 10  1  0  0  0  0
  2  1  2  0  0  0  0
  2  3  1  0  0  0  0
  3  4  1  0  0  0  0
  3  6  2  0  0  0  0
  4  9  2  0  0  0  0
  5  4  1  0  0  0  0
  5 12  1  0  0  0  0
  5 13  1  0  0  0  0
  6  7  1  0  0  0  0
  7  8  2  0  0  0  0
  8 11  1  0  0  0  0
  9  8  1  0  0  0  0
 10  6  1  0  0  0  0
 10 28  1  0  0  0  0
 14 21  1  0  0  0  0
 14  1  1  0  0  0  0
 16 15  1  0  0  0  0
 16 17  1  0  0  0  0
 17 22  1  0  0  0  0
 18 17  2  0  0  0  0
 18 24  1  0  0  0  0
 19 26  1  0  0  0  0
 19 18  1  0  0  0  0
 20 21  1  0  0  0  0
 20 19  2  0  0  0  0
 21 16  2  0  0  0  0
 22 23  1  0  0  0  0
 25 24  1  0  0  0  0
 27 26  1  0  0  0  0
 29 28  1  0  0  0  0
 30 29  1  0  0  0  0
 31 30  1  0  0  0  0
 32 31  3  0  0  0  0
M  END
>  <minimizedAffinity>
-9.51397

$$$$
