
 OpenBabel07192215303D

 30 32  0  0  0  0  0  0  0  0999 V2000
    4.8862   11.8149   23.6186 C   0  0  0  0  0  0  0  0  0  0  0  0
    4.4764   12.9155   24.2418 N   0  0  0  0  0  0  0  0  0  0  0  0
    5.5417   13.6567   24.4624 C   0  0  0  0  0  0  0  0  0  0  0  0
    5.7044   14.8962   25.0674 C   0  0  0  0  0  0  0  0  0  0  0  0
    4.5845   15.6333   25.6632 N   0  0  0  0  0  0  0  0  0  0  0  0
    6.6343   13.0073   23.9092 C   0  0  0  0  0  0  0  0  0  0  0  0
    7.8614   13.5641   23.9543 N   0  0  0  0  0  0  0  0  0  0  0  0
    7.9683   14.7722   24.5455 C   0  0  0  0  0  0  0  0  0  0  0  0
    6.9177   15.4288   25.0843 N   0  0  0  0  0  0  0  0  0  0  0  0
    6.1954   11.8590   23.3989 N   0  0  0  0  0  0  0  0  0  0  0  0
    3.6798   15.2451   25.6551 H   0  0  0  0  0  0  0  0  0  0  0  0
    4.7377   16.5161   26.0712 H   0  0  0  0  0  0  0  0  0  0  0  0
    3.9855   10.6941   23.1774 C   0  0  0  0  0  0  0  0  0  0  0  0
    0.8687   10.3649   25.4326 C   0  0  0  0  0  0  0  0  0  0  0  0
    1.6916   10.8550   24.4114 C   0  0  0  0  0  0  0  0  0  0  0  0
    1.3077    9.3228   26.2369 C   0  0  0  0  0  0  0  0  0  0  0  0
    2.5446    8.7505   26.0555 C   0  0  0  0  0  0  0  0  0  0  0  0
    3.3620    9.2344   25.0505 C   0  0  0  0  0  0  0  0  0  0  0  0
    2.9689   10.2733   24.2315 C   0  0  0  0  0  0  0  0  0  0  0  0
    1.1333   12.1863   23.4251 Cl  0  0  0  0  0  0  0  0  0  0  0  0
   -1.6138   10.8197   25.0562 C   0  0  0  0  0  0  0  0  0  0  0  0
   -0.4144   10.8950   25.7895 O   0  0  0  0  0  0  0  0  0  0  0  0
    0.4341    8.8512   27.2458 O   0  0  0  0  0  0  0  0  0  0  0  0
   -0.1171    7.5282   27.1307 C   0  0  0  0  0  0  0  0  0  0  0  0
    2.9541    7.6477   26.8683 O   0  0  0  0  0  0  0  0  0  0  0  0
    3.5831    6.4763   26.3169 C   0  0  0  0  0  0  0  0  0  0  0  0
    6.9870   10.8221   22.7255 C   0  0  0  0  0  0  0  0  0  0  0  0
    7.9075   10.1495   23.7171 C   0  0  0  0  0  0  0  0  0  0  0  0
    7.6557    8.7202   24.1925 C   0  0  0  0  0  0  0  0  0  0  0  0
    6.5650    7.8851   23.5432 C   0  0  0  0  0  0  0  0  0  0  0  0
  1 10  1  0  0  0  0
  2  1  2  0  0  0  0
  2  3  1  0  0  0  0
  3  4  2  0  0  0  0
  3  6  1  0  0  0  0
  4  9  1  0  0  0  0
  5  4  1  0  0  0  0
  5 11  1  0  0  0  0
  5 12  1  0  0  0  0
  6  7  2  0  0  0  0
  7  8  1  0  0  0  0
  9  8  2  0  0  0  0
 10  6  1  0  0  0  0
 10 27  1  0  0  0  0
 13 19  1  0  0  0  0
 13  1  1  0  0  0  0
 14 22  1  0  0  0  0
 15 20  1  0  0  0  0
 15 14  2  0  0  0  0
 16 14  1  0  0  0  0
 16 23  1  0  0  0  0
 17 16  2  0  0  0  0
 18 19  2  0  0  0  0
 18 17  1  0  0  0  0
 19 15  1  0  0  0  0
 22 21  1  0  0  0  0
 24 23  1  0  0  0  0
 25 17  1  0  0  0  0
 26 25  1  0  0  0  0
 27 28  1  0  0  0  0
 29 28  2  0  0  0  0
 30 29  1  0  0  0  0
M  END
>  <minimizedAffinity>
-9.03846

$$$$
