


 27 29  0  0  0  0  0  0  0  0999 V2000
    4.5979   11.9706   23.8694 C   0  0  0  0  0  0  0  0  0  0  0  0
    4.2586   13.1360   24.4439 N   0  0  0  0  0  0  0  0  0  0  0  0
    5.4089   13.8307   24.5405 C   0  0  0  0  0  0  0  0  0  0  0  0
    5.7015   15.0687   25.0926 C   0  0  0  0  0  0  0  0  0  0  0  0
    4.7271   15.9042   25.7184 N   0  0  0  0  0  0  0  0  0  0  0  0
    6.4233   13.0735   24.0029 C   0  0  0  0  0  0  0  0  0  0  0  0
    7.6859   13.4959   23.9067 N   0  0  0  0  0  0  0  0  0  0  0  0
    7.9711   14.7035   24.4534 C   0  0  0  0  0  0  0  0  0  0  0  0
    6.9641   15.5627   25.0333 N   0  0  0  0  0  0  0  0  0  0  0  0
    5.8881   11.9536   23.6013 N   0  0  0  0  0  0  0  0  0  0  0  0
    3.7933   15.6013   25.7921 H   0  0  0  0  0  0  0  0  0  0  0  0
    4.9892   16.7831   26.0762 H   0  0  0  0  0  0  0  0  0  0  0  0
    3.6664   10.8264   23.4938 C   0  0  0  0  0  0  0  0  0  0  0  0
    0.3652   10.3586   25.4962 C   0  0  0  0  0  0  0  0  0  0  0  0
    1.7134   10.2376   25.0884 C   0  0  0  0  0  0  0  0  0  0  0  0
   -0.4854   11.2227   24.7738 C   0  0  0  0  0  0  0  0  0  0  0  0
    0.0663   11.9248   23.6896 C   0  0  0  0  0  0  0  0  0  0  0  0
    1.3784   11.7626   23.2724 C   0  0  0  0  0  0  0  0  0  0  0  0
    2.2285   10.9320   23.9729 C   0  0  0  0  0  0  0  0  0  0  0  0
    1.9936    8.5631   26.8994 C   0  0  0  0  0  0  0  0  0  0  0  0
    2.5433    9.3704   25.8077 O   0  0  0  0  0  0  0  0  0  0  0  0
   -0.6926   12.8142   22.8816 O   0  0  0  0  0  0  0  0  0  0  0  0
   -1.9881   12.5075   22.3910 C   0  0  0  0  0  0  0  0  0  0  0  0
    6.5182   10.7909   22.9380 C   0  0  0  0  0  0  0  0  0  0  0  0
    7.6197   10.0970   23.7526 C   0  0  0  0  0  0  0  0  0  0  0  0
    8.0068    8.6345   23.5332 C   0  0  0  0  0  0  0  0  0  0  0  0
    7.7927    7.4956   24.5743 C   0  0  0  0  0  0  0  0  0  0  0  0
 21 20  1  0  0  0
 21 15  1  0  0  0
 13 19  1  0  0  0
 13  1  1  0  0  0
 15 19  1  0  0  0
 15 14  2  0  0  0
 19 18  2  0  0  0
 27 26  1  0  0  0
  2  1  2  0  0  0
  2  3  1  0  0  0
 14 16  1  0  0  0
  1 10  1  0  0  0
  5  4  1  0  0  0
 18 17  1  0  0  0
 26 25  1  0  0  0
 16 17  2  0  0  0
 17 22  1  0  0  0
  3  4  2  0  0  0
  3  6  1  0  0  0
  4  9  1  0  0  0
 10  6  1  0  0  0
 10 24  1  0  0  0
 22 23  1  0  0  0
 25 24  1  0  0  0
  6  7  2  0  0  0
  9  8  2  0  0  0
  7  8  1  0  0  0
  5 11  1  0  0  0
  5 12  1  0  0  0
M  END
> <minimizedAffinity>
-9.43261

$$$$



 27 29  0  0  0  0  0  0  0  0999 V2000
    4.9124   11.7083   23.6803 C   0  0  0  0  0  0  0  0  0  0  0  0
    4.4056   12.8129   24.2517 N   0  0  0  0  0  0  0  0  0  0  0  0
    5.4586   13.6347   24.4281 C   0  0  0  0  0  0  0  0  0  0  0  0
    5.5710   14.8855   25.0161 C   0  0  0  0  0  0  0  0  0  0  0  0
    4.4705   15.5873   25.5953 N   0  0  0  0  0  0  0  0  0  0  0  0
    6.5845   13.0133   23.9406 C   0  0  0  0  0  0  0  0  0  0  0  0
    7.7920   13.5821   23.9271 N   0  0  0  0  0  0  0  0  0  0  0  0
    7.9009   14.8020   24.5088 C   0  0  0  0  0  0  0  0  0  0  0  0
    6.7680   15.5246   25.0406 N   0  0  0  0  0  0  0  0  0  0  0  0
    6.2090   11.8480   23.4900 N   0  0  0  0  0  0  0  0  0  0  0  0
    3.5761   15.1760   25.6080 H   0  0  0  0  0  0  0  0  0  0  0  0
    4.6062   16.4825   25.9820 H   0  0  0  0  0  0  0  0  0  0  0  0
    4.1454   10.4721   23.2315 C   0  0  0  0  0  0  0  0  0  0  0  0
    0.5615   10.1500   24.7076 C   0  0  0  0  0  0  0  0  0  0  0  0
    1.6424   10.5509   23.8893 C   0  0  0  0  0  0  0  0  0  0  0  0
    0.8018    9.2124   25.7348 C   0  0  0  0  0  0  0  0  0  0  0  0
    2.1102    8.7216   25.8771 C   0  0  0  0  0  0  0  0  0  0  0  0
    3.1703    9.1570   25.0970 C   0  0  0  0  0  0  0  0  0  0  0  0
    2.9532   10.0637   24.0801 C   0  0  0  0  0  0  0  0  0  0  0  0
    0.8844   12.8188   23.2228 C   0  0  0  0  0  0  0  0  0  0  0  0
    1.3921   11.4881   22.8807 O   0  0  0  0  0  0  0  0  0  0  0  0
    2.4761    7.7835   26.8800 O   0  0  0  0  0  0  0  0  0  0  0  0
    2.2764    8.0083   28.2666 C   0  0  0  0  0  0  0  0  0  0  0  0
    7.0089   10.7821   22.8475 C   0  0  0  0  0  0  0  0  0  0  0  0
    7.9693   10.0363   23.7856 C   0  0  0  0  0  0  0  0  0  0  0  0
    7.9209    8.5203   23.9758 C   0  0  0  0  0  0  0  0  0  0  0  0
    6.6150    7.6715   23.9991 C   0  0  0  0  0  0  0  0  0  0  0  0
 21 20  1  0  0  0
 21 15  1  0  0  0
 13 19  1  0  0  0
 13  1  1  0  0  0
 15 19  1  0  0  0
 15 14  2  0  0  0
 19 18  2  0  0  0
 27 26  1  0  0  0
  2  1  2  0  0  0
  2  3  1  0  0  0
 14 16  1  0  0  0
  1 10  1  0  0  0
  5  4  1  0  0  0
 18 17  1  0  0  0
 26 25  1  0  0  0
 16 17  2  0  0  0
 17 22  1  0  0  0
  3  4  2  0  0  0
  3  6  1  0  0  0
  4  9  1  0  0  0
 10  6  1  0  0  0
 10 24  1  0  0  0
 22 23  1  0  0  0
 25 24  1  0  0  0
  6  7  2  0  0  0
  9  8  2  0  0  0
  7  8  1  0  0  0
  5 11  1  0  0  0
  5 12  1  0  0  0
M  END
> <minimizedAffinity>
-9.29673

$$$$



 27 29  0  0  0  0  0  0  0  0999 V2000
    4.6042   11.6686   23.6285 C   0  0  0  0  0  0  0  0  0  0  0  0
    4.1198   12.7749   24.2158 N   0  0  0  0  0  0  0  0  0  0  0  0
    5.1946   13.5557   24.4401 C   0  0  0  0  0  0  0  0  0  0  0  0
    5.3334   14.7865   25.0636 C   0  0  0  0  0  0  0  0  0  0  0  0
    4.2422   15.5104   25.6332 N   0  0  0  0  0  0  0  0  0  0  0  0
    6.3115   12.9089   23.9649 C   0  0  0  0  0  0  0  0  0  0  0  0
    7.5373   13.4365   23.9967 N   0  0  0  0  0  0  0  0  0  0  0  0
    7.6716   14.6368   24.6129 C   0  0  0  0  0  0  0  0  0  0  0  0
    6.5500   15.3837   25.1348 N   0  0  0  0  0  0  0  0  0  0  0  0
    5.9092   11.7689   23.4745 N   0  0  0  0  0  0  0  0  0  0  0  0
    3.3346   15.1295   25.6125 H   0  0  0  0  0  0  0  0  0  0  0  0
    4.3975   16.3903   26.0465 H   0  0  0  0  0  0  0  0  0  0  0  0
    3.8083   10.4710   23.1282 C   0  0  0  0  0  0  0  0  0  0  0  0
    3.8307    7.0075   24.8973 C   0  0  0  0  0  0  0  0  0  0  0  0
    4.0743    8.0314   23.9534 C   0  0  0  0  0  0  0  0  0  0  0  0
    3.0853    7.3177   26.0550 C   0  0  0  0  0  0  0  0  0  0  0  0
    2.6349    8.6395   26.2062 C   0  0  0  0  0  0  0  0  0  0  0  0
    2.8420    9.6230   25.2513 C   0  0  0  0  0  0  0  0  0  0  0  0
    3.5787    9.3425   24.1190 C   0  0  0  0  0  0  0  0  0  0  0  0
    4.2536    6.7785   21.8180 C   0  0  0  0  0  0  0  0  0  0  0  0
    4.8068    7.7080   22.8057 O   0  0  0  0  0  0  0  0  0  0  0  0
    1.8673    9.0687   27.3225 O   0  0  0  0  0  0  0  0  0  0  0  0
    0.5970    8.5273   27.6487 C   0  0  0  0  0  0  0  0  0  0  0  0
    6.6895   10.6931   22.8245 C   0  0  0  0  0  0  0  0  0  0  0  0
    7.6842    9.9672   23.7423 C   0  0  0  0  0  0  0  0  0  0  0  0
    7.9966    8.4775   23.6012 C   0  0  0  0  0  0  0  0  0  0  0  0
    7.7716    7.4154   24.7184 C   0  0  0  0  0  0  0  0  0  0  0  0
 21 20  1  0  0  0
 21 15  1  0  0  0
 13 19  1  0  0  0
 13  1  1  0  0  0
 15 19  1  0  0  0
 15 14  2  0  0  0
 19 18  2  0  0  0
 27 26  1  0  0  0
  2  1  2  0  0  0
  2  3  1  0  0  0
 14 16  1  0  0  0
  1 10  1  0  0  0
  5  4  1  0  0  0
 18 17  1  0  0  0
 26 25  1  0  0  0
 16 17  2  0  0  0
 17 22  1  0  0  0
  3  4  2  0  0  0
  3  6  1  0  0  0
  4  9  1  0  0  0
 10  6  1  0  0  0
 10 24  1  0  0  0
 22 23  1  0  0  0
 25 24  1  0  0  0
  6  7  2  0  0  0
  9  8  2  0  0  0
  7  8  1  0  0  0
  5 11  1  0  0  0
  5 12  1  0  0  0
M  END
> <minimizedAffinity>
-9.28187

$$$$
