
 OpenBabel07192215303D

 29 31  0  0  0  0  0  0  0  0999 V2000
    4.5896   11.8606   23.7611 C   0  0  0  0  0  0  0  0  0  0  0  0
    4.1567   12.9494   24.4055 N   0  0  0  0  0  0  0  0  0  0  0  0
    5.2873   13.6851   24.5056 C   0  0  0  0  0  0  0  0  0  0  0  0
    5.6205   14.9580   25.1273 C   0  0  0  0  0  0  0  0  0  0  0  0
    4.6746   15.6784   25.7593 N   0  0  0  0  0  0  0  0  0  0  0  0
    6.4024   12.9674   23.8999 C   0  0  0  0  0  0  0  0  0  0  0  0
    7.6420   13.4875   23.8680 N   0  0  0  0  0  0  0  0  0  0  0  0
    7.8609   14.7071   24.4108 C   0  0  0  0  0  0  0  0  0  0  0  0
    6.8805   15.4254   25.0154 N   0  0  0  0  0  0  0  0  0  0  0  0
    5.8976   11.8441   23.4324 N   0  0  0  0  0  0  0  0  0  0  0  0
    3.7578   15.3278   25.8354 H   0  0  0  0  0  0  0  0  0  0  0  0
    4.8998   16.5556   26.1453 H   0  0  0  0  0  0  0  0  0  0  0  0
    3.6472   10.7647   23.3304 C   0  0  0  0  0  0  0  0  0  0  0  0
    0.1988   10.1577   24.8511 C   0  0  0  0  0  0  0  0  0  0  0  0
    1.2625   10.5567   24.0158 C   0  0  0  0  0  0  0  0  0  0  0  0
    0.5288    9.4237   26.0545 C   0  0  0  0  0  0  0  0  0  0  0  0
    1.9254    9.1543   26.3543 C   0  0  0  0  0  0  0  0  0  0  0  0
    2.9459    9.6043   25.4942 C   0  0  0  0  0  0  0  0  0  0  0  0
    2.5913   10.3103   24.3220 C   0  0  0  0  0  0  0  0  0  0  0  0
   -1.4052   11.6400   23.7977 C   0  0  0  0  0  0  0  0  0  0  0  0
   -1.1216   10.4921   24.6356 O   0  0  0  0  0  0  0  0  0  0  0  0
   -0.4291    9.0003   26.9095 O   0  0  0  0  0  0  0  0  0  0  0  0
   -0.9422    9.9717   27.8410 C   0  0  0  0  0  0  0  0  0  0  0  0
    2.1010    8.3932   27.4937 O   0  0  0  0  0  0  0  0  0  0  0  0
    2.5898    7.0823   27.4323 C   0  0  0  0  0  0  0  0  0  0  0  0
    6.6953   10.7983   22.7912 C   0  0  0  0  0  0  0  0  0  0  0  0
    7.3005    9.9792   23.9298 C   0  0  0  0  0  0  0  0  0  0  0  0
    6.8816    8.5201   23.9466 C   0  0  0  0  0  0  0  0  0  0  0  0
    8.1783    7.7025   23.9858 C   0  0  0  0  0  0  0  0  0  0  0  0
  1 10  1  0  0  0  0
  2  1  2  0  0  0  0
  2  3  1  0  0  0  0
  3  4  2  0  0  0  0
  3  6  1  0  0  0  0
  4  9  1  0  0  0  0
  5  4  1  0  0  0  0
  5 11  1  0  0  0  0
  5 12  1  0  0  0  0
  6  7  2  0  0  0  0
  7  8  1  0  0  0  0
  9  8  2  0  0  0  0
 10  6  1  0  0  0  0
 10 26  1  0  0  0  0
 13 19  1  0  0  0  0
 13  1  1  0  0  0  0
 14 16  1  0  0  0  0
 15 19  1  0  0  0  0
 15 14  2  0  0  0  0
 16 17  2  0  0  0  0
 16 22  1  0  0  0  0
 17 24  1  0  0  0  0
 18 17  1  0  0  0  0
 19 18  2  0  0  0  0
 20 21  1  0  0  0  0
 21 14  1  0  0  0  0
 23 22  1  0  0  0  0
 24 25  1  0  0  0  0
 27 26  1  0  0  0  0
 28 29  1  0  0  0  0
 28 27  1  0  0  0  0
M  END
>  <minimizedAffinity>
-9.08633

$$$$
