
 OpenBabel07192215303D

 49 50  0  0  0  0  0  0  0  0999 V2000
    3.4594    7.0640   22.7733 C   0  0  1  0  0  0  0  0  0  0  0  0
    3.0938    6.3215   24.1217 C   0  0  0  0  0  0  0  0  0  0  0  0
    1.6465    5.8158   24.4531 C   0  0  2  0  0  0  0  0  0  0  0  0
    0.6538    6.8359   23.8421 C   0  0  0  0  0  0  0  0  0  0  0  0
    1.3652    5.5207   26.0722 C   0  0  0  0  0  0  0  0  0  0  0  0
    1.6522    6.7292   27.0247 C   0  0  0  0  0  0  0  0  0  0  0  0
    2.8247    7.0636   27.7382 C   0  0  0  0  0  0  0  0  0  0  0  0
    2.9562    8.2986   28.6033 C   0  0  0  0  0  0  0  0  0  0  0  0
    4.0314    8.5116   29.1702 O   0  0  0  0  0  0  0  0  0  0  0  0
    1.7772    9.2135   28.7425 C   0  0  0  0  0  0  0  0  0  0  0  0
    0.5879    8.9319   28.0940 C   0  0  0  0  0  0  0  0  0  0  0  0
   -0.6263    9.6825   28.1413 N   0  0  0  0  0  0  0  0  0  0  0  0
   -1.5758   10.2847   27.2241 C   0  0  0  0  0  0  0  0  0  0  0  0
   -2.4637   10.8073   27.7009 O   0  0  0  0  0  0  0  0  0  0  0  0
   -1.3279   10.1618   25.7039 C   0  0  0  0  0  0  0  0  0  0  0  0
   -2.4757    9.6005   24.8992 C   0  0  0  0  0  0  0  0  0  0  0  0
   -0.1032   10.5437   25.2035 C   0  0  0  0  0  0  0  0  0  0  0  0
    0.3898   10.5059   23.8208 C   0  0  0  0  0  0  0  0  0  0  0  0
    1.3781   11.2446   23.3325 C   0  0  0  0  0  0  0  0  0  0  0  0
    2.1915   12.2691   24.0729 C   0  0  1  0  0  0  0  0  0  0  0  0
    3.7470   12.0453   23.9504 C   0  0  2  0  0  0  0  0  0  0  0  0
    4.3298   10.5999   24.4425 C   0  0  0  0  0  0  0  0  0  0  0  0
    4.2023   10.2864   25.9295 C   0  0  0  0  0  0  0  0  0  0  0  0
    4.8771    9.8217   23.5509 C   0  0  0  0  0  0  0  0  0  0  0  0
    5.5203    8.4548   23.6750 C   0  0  2  0  0  0  0  0  0  0  0  0
    7.0258    8.7497   23.4968 C   0  0  0  0  0  0  0  0  0  0  0  0
    4.9887    7.4396   22.6534 C   0  0  1  0  0  0  0  0  0  0  0  0
    5.7217    6.1936   22.9178 O   0  0  0  0  0  0  0  0  0  0  0  0
    0.4811    7.6604   27.1973 C   0  0  0  0  0  0  0  0  0  0  0  0
   -0.5880    7.4116   26.6108 O   0  0  0  0  0  0  0  0  0  0  0  0
   -0.9008    9.8374   29.0740 H   0  0  0  0  0  0  0  0  0  0  0  0
    5.5265    5.8884   23.8176 H   0  0  0  0  0  0  0  0  0  0  0  0
    3.8857    6.2953   20.3406 C   0  0  0  0  0  0  0  0  0  0  0  0
    3.0901    6.1390   21.7364 O   0  0  0  0  0  0  0  0  0  0  0  0
    4.0238    6.2518   27.7113 N   0  0  0  0  0  0  0  0  0  0  0  0
    4.5529    6.2468   26.8811 H   0  0  0  0  0  0  0  0  0  0  0  0
    4.5043    5.4417   28.8236 C   0  0  0  0  0  0  0  0  0  0  0  0
    4.2121    5.8746   30.3139 C   0  0  0  0  0  0  0  0  0  0  0  0
    3.0461    5.4538   31.2336 N   0  0  0  0  0  0  0  0  0  0  0  0
    1.8140    6.0575   30.8023 C   0  0  0  0  0  0  0  0  0  0  0  0
    3.1143    5.9301   32.5830 C   0  0  0  0  0  0  0  0  0  0  0  0
    1.9714   13.6807   23.5543 O   0  0  0  0  0  0  0  0  0  0  0  0
    1.1801   14.5758   24.2488 C   0  0  0  0  0  0  0  0  0  0  0  0
    4.4248   13.0335   24.6818 O   0  0  0  0  0  0  0  0  0  0  0  0
    5.7019   13.3977   24.2109 C   0  0  0  0  0  0  0  0  0  0  0  0
    5.9018   14.7014   24.4943 N   0  0  0  0  0  0  0  0  0  0  0  0
    6.5091   12.6743   23.6455 O   0  0  0  0  0  0  0  0  0  0  0  0
    5.2010   15.2184   24.9535 H   0  0  0  0  0  0  0  0  0  0  0  0
    6.7485   15.1358   24.2421 H   0  0  0  0  0  0  0  0  0  0  0  0
  1 27  1  0  0  0  0
  1 34  1  6  0  0  0
  2  1  1  0  0  0  0
  3  4  1  1  0  0  0
  3  2  1  0  0  0  0
  5  3  1  0  0  0  0
  6  5  1  0  0  0  0
  7  6  2  0  0  0  0
  7 35  1  0  0  0  0
  8  7  1  0  0  0  0
  9  8  2  0  0  0  0
 10 11  2  0  0  0  0
 10  8  1  0  0  0  0
 11 29  1  0  0  0  0
 12 13  1  0  0  0  0
 12 11  1  0  0  0  0
 12 31  1  0  0  0  0
 13 15  1  0  0  0  0
 14 13  2  0  0  0  0
 15 16  1  0  0  0  0
 15 17  2  0  0  0  0
 17 18  1  0  0  0  0
 18 19  2  0  0  0  0
 20 42  1  6  0  0  0
 20 19  1  0  0  0  0
 20 21  1  0  0  0  0
 21 44  1  1  0  0  0
 21 22  1  0  0  0  0
 22 24  2  0  0  0  0
 23 22  1  0  0  0  0
 24 25  1  0  0  0  0
 25 26  1  6  0  0  0
 25 27  1  0  0  0  0
 27 28  1  1  0  0  0
 28 32  1  0  0  0  0
 29 30  2  0  0  0  0
 29  6  1  0  0  0  0
 34 33  1  0  0  0  0
 35 37  1  0  0  0  0
 35 36  1  0  0  0  0
 38 37  1  0  0  0  0
 39 38  1  0  0  0  0
 40 39  1  0  0  0  0
 41 39  1  0  0  0  0
 43 42  1  0  0  0  0
 44 45  1  0  0  0  0
 45 47  2  0  0  0  0
 46 45  1  0  0  0  0
 46 48  1  0  0  0  0
 46 49  1  0  0  0  0
M  END
>  <minimizedAffinity>
5.01022

$$$$
