
 OpenBabel07192215303D

 29 31  0  0  0  0  0  0  0  0999 V2000
    4.7214   11.7560   23.7259 C   0  0  0  0  0  0  0  0  0  0  0  0
    4.2137   12.8247   24.3492 N   0  0  0  0  0  0  0  0  0  0  0  0
    5.3003   13.6206   24.4730 C   0  0  0  0  0  0  0  0  0  0  0  0
    5.5482   14.9139   25.0925 C   0  0  0  0  0  0  0  0  0  0  0  0
    4.5485   15.5871   25.6929 N   0  0  0  0  0  0  0  0  0  0  0  0
    6.4681   12.9594   23.9035 C   0  0  0  0  0  0  0  0  0  0  0  0
    7.6786   13.5449   23.9001 N   0  0  0  0  0  0  0  0  0  0  0  0
    7.8173   14.7783   24.4381 C   0  0  0  0  0  0  0  0  0  0  0  0
    6.7840   15.4473   25.0101 N   0  0  0  0  0  0  0  0  0  0  0  0
    6.0367   11.8073   23.4323 N   0  0  0  0  0  0  0  0  0  0  0  0
    3.6499   15.1885   25.7475 H   0  0  0  0  0  0  0  0  0  0  0  0
    4.7160   16.4778   26.0772 H   0  0  0  0  0  0  0  0  0  0  0  0
    3.8507   10.6083   23.2797 C   0  0  0  0  0  0  0  0  0  0  0  0
    2.0064    9.2303   26.3248 C   0  0  0  0  0  0  0  0  0  0  0  0
    2.9968    9.6217   25.4004 C   0  0  0  0  0  0  0  0  0  0  0  0
    0.6253    9.4965   25.9823 C   0  0  0  0  0  0  0  0  0  0  0  0
    0.3249   10.1268   24.7073 C   0  0  0  0  0  0  0  0  0  0  0  0
    1.3574   10.4690   23.8126 C   0  0  0  0  0  0  0  0  0  0  0  0
    2.6967   10.2049   24.1797 C   0  0  0  0  0  0  0  0  0  0  0  0
    2.5307    7.1192   27.3961 C   0  0  0  0  0  0  0  0  0  0  0  0
    2.2654    8.5407   27.4906 O   0  0  0  0  0  0  0  0  0  0  0  0
   -0.3869    9.1574   26.8119 O   0  0  0  0  0  0  0  0  0  0  0  0
   -0.8460   10.1734   27.7238 C   0  0  0  0  0  0  0  0  0  0  0  0
   -1.0210   10.3831   24.5301 O   0  0  0  0  0  0  0  0  0  0  0  0
   -1.4684   11.5464   23.8915 C   0  0  0  0  0  0  0  0  0  0  0  0
    6.9062   10.8012   22.8216 C   0  0  0  0  0  0  0  0  0  0  0  0
    7.5645   10.0592   23.9833 C   0  0  0  0  0  0  0  0  0  0  0  0
    7.9007    8.6076   23.6926 C   0  0  0  0  0  0  0  0  0  0  0  0
    6.6433    7.7997   24.0355 C   0  0  0  0  0  0  0  0  0  0  0  0
  1 10  1  0  0  0  0
  2  1  2  0  0  0  0
  2  3  1  0  0  0  0
  3  4  2  0  0  0  0
  3  6  1  0  0  0  0
  4  9  1  0  0  0  0
  5  4  1  0  0  0  0
  5 11  1  0  0  0  0
  5 12  1  0  0  0  0
  6  7  2  0  0  0  0
  7  8  1  0  0  0  0
  9  8  2  0  0  0  0
 10  6  1  0  0  0  0
 10 26  1  0  0  0  0
 13 19  1  0  0  0  0
 13  1  1  0  0  0  0
 14 16  1  0  0  0  0
 15 19  1  0  0  0  0
 15 14  2  0  0  0  0
 16 17  2  0  0  0  0
 16 22  1  0  0  0  0
 17 24  1  0  0  0  0
 18 17  1  0  0  0  0
 19 18  2  0  0  0  0
 20 21  1  0  0  0  0
 21 14  1  0  0  0  0
 23 22  1  0  0  0  0
 24 25  1  0  0  0  0
 27 26  1  0  0  0  0
 28 29  1  0  0  0  0
 28 27  1  0  0  0  0
M  END
>  <minimizedAffinity>
-9.06518

$$$$
