
 OpenBabel07192215303D

 25 27  0  0  0  0  0  0  0  0999 V2000
    5.3770   11.6878   23.4110 N   0  0  0  0  0  0  0  0  0  0  0  0
    5.6625   12.8461   23.9827 C   0  0  0  0  0  0  0  0  0  0  0  0
    4.6816   13.6907   24.5133 N   0  0  0  0  0  0  0  0  0  0  0  0
    5.1645   14.9245   25.1200 C   0  0  0  0  0  0  0  0  0  0  0  0
    6.5847   15.0767   25.1506 N   0  0  0  0  0  0  0  0  0  0  0  0
    7.1163   13.1271   24.0314 C   0  0  0  0  0  0  0  0  0  0  0  0
    7.5820   14.3049   24.6639 C   0  0  0  0  0  0  0  0  0  0  0  0
    8.9123   14.5394   24.7196 N   0  0  0  0  0  0  0  0  0  0  0  0
    7.6854   12.0085   23.5005 N   0  0  0  0  0  0  0  0  0  0  0  0
    6.6237   11.3031   23.1203 C   0  0  0  0  0  0  0  0  0  0  0  0
    9.5428   13.8947   24.3245 H   0  0  0  0  0  0  0  0  0  0  0  0
    9.2506   15.3549   25.1553 H   0  0  0  0  0  0  0  0  0  0  0  0
    4.0786   11.0899   23.1707 C   0  0  0  0  0  0  0  0  0  0  0  0
    3.3323   10.8348   24.4685 C   0  0  0  0  0  0  0  0  0  0  0  0
    1.4374   12.2881   23.6593 C   0  0  0  0  0  0  0  0  0  0  0  0
    2.0113   11.0814   24.4588 C   0  0  0  0  0  0  0  0  0  0  0  0
    6.6043    9.9068   22.5003 C   0  0  0  0  0  0  0  0  0  0  0  0
    6.7937    8.7393   23.4542 C   0  0  0  0  0  0  0  0  0  0  0  0
    7.9629    8.4303   24.1433 C   0  0  0  0  0  0  0  0  0  0  0  0
    8.0037    7.3331   25.0058 C   0  0  0  0  0  0  0  0  0  0  0  0
    5.6063    7.9707   23.5513 C   0  0  0  0  0  0  0  0  0  0  0  0
    5.6776    6.8602   24.4160 C   0  0  0  0  0  0  0  0  0  0  0  0
    6.8472    6.5508   25.1334 C   0  0  0  0  0  0  0  0  0  0  0  0
    6.8993    5.4397   25.9652 O   0  0  0  0  0  0  0  0  0  0  0  0
    6.2843    5.4396   27.2503 C   0  0  0  0  0  0  0  0  0  0  0  0
  1  2  1  0  0  0  0
  1 13  1  0  0  0  0
  2  3  1  0  0  0  0
  3  4  2  0  0  0  0
  5  4  1  0  0  0  0
  6  7  1  0  0  0  0
  6  2  2  0  0  0  0
  7  5  2  0  0  0  0
  8  7  1  0  0  0  0
  8 11  1  0  0  0  0
  8 12  1  0  0  0  0
  9 10  2  0  0  0  0
  9  6  1  0  0  0  0
 10  1  1  0  0  0  0
 14 13  1  0  0  0  0
 15 16  1  0  0  0  0
 16 14  1  0  0  0  0
 17 18  1  0  0  0  0
 17 10  1  0  0  0  0
 18 19  2  0  0  0  0
 18 21  1  0  0  0  0
 19 20  1  0  0  0  0
 20 23  2  0  0  0  0
 21 22  2  0  0  0  0
 22 23  1  0  0  0  0
 23 24  1  0  0  0  0
 24 25  1  0  0  0  0
M  END
>  <minimizedAffinity>
-8.87010

$$$$
