
 OpenBabel07192215303D

 30 32  0  0  0  0  0  0  0  0999 V2000
    4.8062   11.6307   23.5637 C   0  0  0  0  0  0  0  0  0  0  0  0
    4.3285   12.7055   24.1836 N   0  0  0  0  0  0  0  0  0  0  0  0
    5.3487   13.5032   24.4202 C   0  0  0  0  0  0  0  0  0  0  0  0
    5.4353   14.7480   25.0300 C   0  0  0  0  0  0  0  0  0  0  0  0
    4.2689   15.4212   25.6119 N   0  0  0  0  0  0  0  0  0  0  0  0
    6.4825   12.9159   23.8806 C   0  0  0  0  0  0  0  0  0  0  0  0
    7.6767   13.5387   23.9436 N   0  0  0  0  0  0  0  0  0  0  0  0
    7.7094   14.7491   24.5388 C   0  0  0  0  0  0  0  0  0  0  0  0
    6.6173   15.3459   25.0645 N   0  0  0  0  0  0  0  0  0  0  0  0
    6.1138   11.7468   23.3620 N   0  0  0  0  0  0  0  0  0  0  0  0
    3.3869   14.9843   25.5907 H   0  0  0  0  0  0  0  0  0  0  0  0
    4.3681   16.3099   26.0238 H   0  0  0  0  0  0  0  0  0  0  0  0
    3.9741   10.4637   23.1080 C   0  0  0  0  0  0  0  0  0  0  0  0
    1.2169    9.1536   25.4724 C   0  0  0  0  0  0  0  0  0  0  0  0
    2.4480    9.2011   24.8073 C   0  0  0  0  0  0  0  0  0  0  0  0
    0.2733   10.1478   25.2565 C   0  0  0  0  0  0  0  0  0  0  0  0
    0.5177   11.1923   24.3965 C   0  0  0  0  0  0  0  0  0  0  0  0
    1.7310   11.2407   23.7346 C   0  0  0  0  0  0  0  0  0  0  0  0
    2.6956   10.2702   23.9140 C   0  0  0  0  0  0  0  0  0  0  0  0
    3.6146    7.9257   25.0707 Cl  0  0  0  0  0  0  0  0  0  0  0  0
    0.2387    6.8544   25.9906 C   0  0  0  0  0  0  0  0  0  0  0  0
    0.7868    8.1015   26.3460 O   0  0  0  0  0  0  0  0  0  0  0  0
   -0.9501   10.0649   25.9636 O   0  0  0  0  0  0  0  0  0  0  0  0
   -1.0151   10.5674   27.3092 C   0  0  0  0  0  0  0  0  0  0  0  0
   -0.4534   12.2280   24.2269 O   0  0  0  0  0  0  0  0  0  0  0  0
   -1.4972   12.1508   23.2388 C   0  0  0  0  0  0  0  0  0  0  0  0
    6.9699   10.7565   22.6973 C   0  0  0  0  0  0  0  0  0  0  0  0
    7.9392   10.1611   23.6919 C   0  0  0  0  0  0  0  0  0  0  0  0
    7.8068    8.7141   24.1622 C   0  0  0  0  0  0  0  0  0  0  0  0
    6.7938    7.7918   23.5050 C   0  0  0  0  0  0  0  0  0  0  0  0
  1 10  1  0  0  0  0
  2  1  2  0  0  0  0
  2  3  1  0  0  0  0
  3  4  2  0  0  0  0
  3  6  1  0  0  0  0
  4  9  1  0  0  0  0
  5  4  1  0  0  0  0
  5 11  1  0  0  0  0
  5 12  1  0  0  0  0
  6  7  2  0  0  0  0
  7  8  1  0  0  0  0
  9  8  2  0  0  0  0
 10  6  1  0  0  0  0
 10 27  1  0  0  0  0
 13 19  1  0  0  0  0
 13  1  1  0  0  0  0
 14 22  1  0  0  0  0
 15 20  1  0  0  0  0
 15 14  2  0  0  0  0
 16 14  1  0  0  0  0
 16 23  1  0  0  0  0
 17 16  2  0  0  0  0
 18 19  2  0  0  0  0
 18 17  1  0  0  0  0
 19 15  1  0  0  0  0
 22 21  1  0  0  0  0
 24 23  1  0  0  0  0
 25 17  1  0  0  0  0
 26 25  1  0  0  0  0
 27 28  1  0  0  0  0
 29 28  2  0  0  0  0
 30 29  1  0  0  0  0
M  END
>  <minimizedAffinity>
-8.97992

$$$$
