
 OpenBabel07192215303D

 27 29  0  0  0  0  0  0  0  0999 V2000
    4.5979   11.9706   23.8694 C   0  0  0  0  0  0  0  0  0  0  0  0
    4.2586   13.1360   24.4439 N   0  0  0  0  0  0  0  0  0  0  0  0
    5.4089   13.8307   24.5405 C   0  0  0  0  0  0  0  0  0  0  0  0
    5.7015   15.0687   25.0926 C   0  0  0  0  0  0  0  0  0  0  0  0
    4.7271   15.9042   25.7184 N   0  0  0  0  0  0  0  0  0  0  0  0
    6.4233   13.0735   24.0029 C   0  0  0  0  0  0  0  0  0  0  0  0
    7.6859   13.4959   23.9067 N   0  0  0  0  0  0  0  0  0  0  0  0
    7.9711   14.7035   24.4534 C   0  0  0  0  0  0  0  0  0  0  0  0
    6.9641   15.5627   25.0333 N   0  0  0  0  0  0  0  0  0  0  0  0
    5.8881   11.9536   23.6013 N   0  0  0  0  0  0  0  0  0  0  0  0
    3.7933   15.6013   25.7921 H   0  0  0  0  0  0  0  0  0  0  0  0
    4.9892   16.7831   26.0762 H   0  0  0  0  0  0  0  0  0  0  0  0
    3.6664   10.8264   23.4938 C   0  0  0  0  0  0  0  0  0  0  0  0
    0.3652   10.3586   25.4962 C   0  0  0  0  0  0  0  0  0  0  0  0
    1.7134   10.2376   25.0884 C   0  0  0  0  0  0  0  0  0  0  0  0
   -0.4854   11.2227   24.7738 C   0  0  0  0  0  0  0  0  0  0  0  0
    0.0663   11.9248   23.6896 C   0  0  0  0  0  0  0  0  0  0  0  0
    1.3784   11.7626   23.2724 C   0  0  0  0  0  0  0  0  0  0  0  0
    2.2285   10.9320   23.9729 C   0  0  0  0  0  0  0  0  0  0  0  0
    1.9936    8.5631   26.8994 C   0  0  0  0  0  0  0  0  0  0  0  0
    2.5433    9.3704   25.8077 O   0  0  0  0  0  0  0  0  0  0  0  0
   -0.6926   12.8142   22.8816 O   0  0  0  0  0  0  0  0  0  0  0  0
   -1.9881   12.5075   22.3910 C   0  0  0  0  0  0  0  0  0  0  0  0
    6.5182   10.7909   22.9380 C   0  0  0  0  0  0  0  0  0  0  0  0
    7.6197   10.0970   23.7526 C   0  0  0  0  0  0  0  0  0  0  0  0
    8.0068    8.6345   23.5332 C   0  0  0  0  0  0  0  0  0  0  0  0
    7.7927    7.4956   24.5743 C   0  0  0  0  0  0  0  0  0  0  0  0
  1 10  1  0  0  0  0
  2  1  2  0  0  0  0
  2  3  1  0  0  0  0
  3  4  2  0  0  0  0
  3  6  1  0  0  0  0
  4  9  1  0  0  0  0
  5  4  1  0  0  0  0
  5 11  1  0  0  0  0
  5 12  1  0  0  0  0
  6  7  2  0  0  0  0
  7  8  1  0  0  0  0
  9  8  2  0  0  0  0
 10  6  1  0  0  0  0
 10 24  1  0  0  0  0
 13 19  1  0  0  0  0
 13  1  1  0  0  0  0
 14 16  1  0  0  0  0
 15 19  1  0  0  0  0
 15 14  2  0  0  0  0
 16 17  2  0  0  0  0
 17 22  1  0  0  0  0
 18 17  1  0  0  0  0
 19 18  2  0  0  0  0
 21 20  1  0  0  0  0
 21 15  1  0  0  0  0
 22 23  1  0  0  0  0
 25 24  1  0  0  0  0
 26 25  1  0  0  0  0
 27 26  1  0  0  0  0
M  END
>  <minimizedAffinity>
-9.43261

$$$$
