
 OpenBabel07192215303D

 27 29  0  0  0  0  0  0  0  0999 V2000
    4.9124   11.7083   23.6803 C   0  0  0  0  0  0  0  0  0  0  0  0
    4.4056   12.8129   24.2517 N   0  0  0  0  0  0  0  0  0  0  0  0
    5.4586   13.6347   24.4281 C   0  0  0  0  0  0  0  0  0  0  0  0
    5.5710   14.8855   25.0161 C   0  0  0  0  0  0  0  0  0  0  0  0
    4.4705   15.5873   25.5953 N   0  0  0  0  0  0  0  0  0  0  0  0
    6.5845   13.0133   23.9406 C   0  0  0  0  0  0  0  0  0  0  0  0
    7.7920   13.5821   23.9271 N   0  0  0  0  0  0  0  0  0  0  0  0
    7.9009   14.8020   24.5088 C   0  0  0  0  0  0  0  0  0  0  0  0
    6.7680   15.5246   25.0406 N   0  0  0  0  0  0  0  0  0  0  0  0
    6.2090   11.8480   23.4900 N   0  0  0  0  0  0  0  0  0  0  0  0
    3.5761   15.1760   25.6080 H   0  0  0  0  0  0  0  0  0  0  0  0
    4.6062   16.4825   25.9820 H   0  0  0  0  0  0  0  0  0  0  0  0
    4.1454   10.4721   23.2315 C   0  0  0  0  0  0  0  0  0  0  0  0
    0.5615   10.1500   24.7076 C   0  0  0  0  0  0  0  0  0  0  0  0
    1.6424   10.5509   23.8893 C   0  0  0  0  0  0  0  0  0  0  0  0
    0.8018    9.2124   25.7348 C   0  0  0  0  0  0  0  0  0  0  0  0
    2.1102    8.7216   25.8771 C   0  0  0  0  0  0  0  0  0  0  0  0
    3.1703    9.1570   25.0970 C   0  0  0  0  0  0  0  0  0  0  0  0
    2.9532   10.0637   24.0801 C   0  0  0  0  0  0  0  0  0  0  0  0
    0.8844   12.8188   23.2228 C   0  0  0  0  0  0  0  0  0  0  0  0
    1.3921   11.4881   22.8807 O   0  0  0  0  0  0  0  0  0  0  0  0
    2.4761    7.7835   26.8800 O   0  0  0  0  0  0  0  0  0  0  0  0
    2.2764    8.0083   28.2666 C   0  0  0  0  0  0  0  0  0  0  0  0
    7.0089   10.7821   22.8475 C   0  0  0  0  0  0  0  0  0  0  0  0
    7.9693   10.0363   23.7856 C   0  0  0  0  0  0  0  0  0  0  0  0
    7.9209    8.5203   23.9758 C   0  0  0  0  0  0  0  0  0  0  0  0
    6.6150    7.6715   23.9991 C   0  0  0  0  0  0  0  0  0  0  0  0
  1 10  1  0  0  0  0
  2  1  2  0  0  0  0
  2  3  1  0  0  0  0
  3  4  2  0  0  0  0
  3  6  1  0  0  0  0
  4  9  1  0  0  0  0
  5  4  1  0  0  0  0
  5 11  1  0  0  0  0
  5 12  1  0  0  0  0
  6  7  2  0  0  0  0
  7  8  1  0  0  0  0
  9  8  2  0  0  0  0
 10  6  1  0  0  0  0
 10 24  1  0  0  0  0
 13 19  1  0  0  0  0
 13  1  1  0  0  0  0
 14 16  1  0  0  0  0
 15 19  1  0  0  0  0
 15 14  2  0  0  0  0
 16 17  2  0  0  0  0
 17 22  1  0  0  0  0
 18 17  1  0  0  0  0
 19 18  2  0  0  0  0
 21 20  1  0  0  0  0
 21 15  1  0  0  0  0
 22 23  1  0  0  0  0
 25 24  1  0  0  0  0
 26 25  1  0  0  0  0
 27 26  1  0  0  0  0
M  END
>  <minimizedAffinity>
-9.29673

$$$$
