


 24 26  0  0  0  0  0  0  0  0999 V2000
    6.5002   10.6040   21.6898 N   0  0  0  0  0  0  0  0  0  0  0  0
    5.7864    9.5460   21.4677 C   0  0  0  0  0  0  0  0  0  0  0  0
    5.3601    9.1037   20.3056 N   0  0  0  0  0  0  0  0  0  0  0  0
    4.6216    8.0164   20.3654 C   0  0  0  0  0  0  0  0  0  0  0  0
    4.2572    7.3452   21.4511 N   0  0  0  0  0  0  0  0  0  0  0  0
    5.4912    8.9333   22.6307 C   0  0  0  0  0  0  0  0  0  0  0  0
    4.6695    7.8212   22.6118 C   0  0  0  0  0  0  0  0  0  0  0  0
    4.2806    7.1065   23.7815 N   0  0  0  0  0  0  0  0  0  0  0  0
    6.0246    9.6322   23.6302 N   0  0  0  0  0  0  0  0  0  0  0  0
    6.6348   10.6770   23.0219 C   0  0  0  0  0  0  0  0  0  0  0  0
    4.1224    7.4390   18.9504 F   0  0  0  0  0  0  0  0  0  0  0  0
    4.5643    7.4237   24.6693 H   0  0  0  0  0  0  0  0  0  0  0  0
    3.7282    6.2955   23.7019 H   0  0  0  0  0  0  0  0  0  0  0  0
    7.4443   11.7710   23.6441 C   0  0  0  0  0  0  0  0  0  0  0  0
    7.2201   14.0764   24.6125 C   0  0  0  0  0  0  0  0  0  0  0  0
    6.6045   12.9317   24.1328 C   0  0  0  0  0  0  0  0  0  0  0  0
    5.2329   12.8352   24.1141 C   0  0  0  0  0  0  0  0  0  0  0  0
    6.5069   15.1766   25.0495 C   0  0  0  0  0  0  0  0  0  0  0  0
    5.1189   15.1057   25.0191 C   0  0  0  0  0  0  0  0  0  0  0  0
    4.4972   13.9377   24.5473 C   0  0  0  0  0  0  0  0  0  0  0  0
    9.2858   14.7838   25.7190 C   0  0  0  0  0  0  0  0  0  0  0  0
    8.6116   14.1097   24.6358 O   0  0  0  0  0  0  0  0  0  0  0  0
    3.0782   13.8011   24.5235 O   0  0  0  0  0  0  0  0  0  0  0  0
    2.4285   12.6166   24.0442 C   0  0  0  0  0  0  0  0  0  0  0  0
 22 21  1  0  0  0
 22 15  1  0  0  0
 14 16  1  0  0  0
 14 10  1  0  0  0
 15 16  2  0  0  0
 15 18  1  0  0  0
 16 17  1  0  0  0
 18 19  2  0  0  0
  9 10  1  0  0  0
  9  6  2  0  0  0
 10  1  2  0  0  0
  8  7  1  0  0  0
 17 20  2  0  0  0
 19 20  1  0  0  0
 20 23  1  0  0  0
  6  7  1  0  0  0
  6  2  1  0  0  0
  7  5  2  0  0  0
 23 24  1  0  0  0
  1  2  2  0  0  0
  2  3  1  0  0  0
  5  4  1  0  0  0
  3  4  2  0  0  0
  4 11  1  0  0  0
  8 12  1  0  0  0
  8 13  1  0  0  0
M  END
> <minimizedAffinity>
-8.61170

$$$$



 24 26  0  0  0  0  0  0  0  0999 V2000
    1.8202   11.9811   22.4470 N   0  0  0  0  0  0  0  0  0  0  0  0
    0.5504   12.2275   22.3749 C   0  0  0  0  0  0  0  0  0  0  0  0
   -0.0702   12.9445   21.4647 N   0  0  0  0  0  0  0  0  0  0  0  0
   -1.3681   13.0631   21.6452 C   0  0  0  0  0  0  0  0  0  0  0  0
   -2.0960   12.5606   22.6350 N   0  0  0  0  0  0  0  0  0  0  0  0
   -0.0923   11.6568   23.4125 C   0  0  0  0  0  0  0  0  0  0  0  0
   -1.4512   11.8686   23.5565 C   0  0  0  0  0  0  0  0  0  0  0  0
   -2.2263   11.3276   24.6227 N   0  0  0  0  0  0  0  0  0  0  0  0
    0.8006   11.0358   24.1798 N   0  0  0  0  0  0  0  0  0  0  0  0
    1.9870   11.2644   23.5680 C   0  0  0  0  0  0  0  0  0  0  0  0
   -2.1501   13.9052   20.5208 F   0  0  0  0  0  0  0  0  0  0  0  0
   -1.7891   10.8045   25.3329 H   0  0  0  0  0  0  0  0  0  0  0  0
   -3.1990   11.4770   24.6492 H   0  0  0  0  0  0  0  0  0  0  0  0
    3.3435   10.7651   23.9547 C   0  0  0  0  0  0  0  0  0  0  0  0
    5.7003   11.5909   23.6971 C   0  0  0  0  0  0  0  0  0  0  0  0
    4.3839   11.8618   24.0333 C   0  0  0  0  0  0  0  0  0  0  0  0
    4.0181   13.1183   24.4558 C   0  0  0  0  0  0  0  0  0  0  0  0
    6.6888   12.5564   23.7263 C   0  0  0  0  0  0  0  0  0  0  0  0
    6.3341   13.8380   24.1313 C   0  0  0  0  0  0  0  0  0  0  0  0
    5.0019   14.1061   24.4871 C   0  0  0  0  0  0  0  0  0  0  0  0
    7.3959    9.9613   23.0181 C   0  0  0  0  0  0  0  0  0  0  0  0
    6.0212   10.2948   23.3035 O   0  0  0  0  0  0  0  0  0  0  0  0
    4.5912   15.3946   24.9384 O   0  0  0  0  0  0  0  0  0  0  0  0
    4.4407   15.7097   26.3287 C   0  0  0  0  0  0  0  0  0  0  0  0
 22 21  1  0  0  0
 22 15  1  0  0  0
 14 16  1  0  0  0
 14 10  1  0  0  0
 15 16  2  0  0  0
 15 18  1  0  0  0
 16 17  1  0  0  0
 18 19  2  0  0  0
  9 10  1  0  0  0
  9  6  2  0  0  0
 10  1  2  0  0  0
  8  7  1  0  0  0
 17 20  2  0  0  0
 19 20  1  0  0  0
 20 23  1  0  0  0
  6  7  1  0  0  0
  6  2  1  0  0  0
  7  5  2  0  0  0
 23 24  1  0  0  0
  1  2  2  0  0  0
  2  3  1  0  0  0
  5  4  1  0  0  0
  3  4  2  0  0  0
  4 11  1  0  0  0
  8 12  1  0  0  0
  8 13  1  0  0  0
M  END
> <minimizedAffinity>
-8.58205

$$$$



 24 26  0  0  0  0  0  0  0  0999 V2000
    5.9652    9.8238   24.1823 N   0  0  0  0  0  0  0  0  0  0  0  0
    5.2758    8.8882   23.6101 C   0  0  0  0  0  0  0  0  0  0  0  0
    4.6684    7.8785   24.1925 N   0  0  0  0  0  0  0  0  0  0  0  0
    4.0615    7.0499   23.3700 C   0  0  0  0  0  0  0  0  0  0  0  0
    4.0136    7.1163   22.0451 N   0  0  0  0  0  0  0  0  0  0  0  0
    5.2766    9.0626   22.2741 C   0  0  0  0  0  0  0  0  0  0  0  0
    4.6548    8.1203   21.4756 C   0  0  0  0  0  0  0  0  0  0  0  0
    4.6087    8.1967   20.0535 N   0  0  0  0  0  0  0  0  0  0  0  0
    6.0027   10.1397   21.9835 N   0  0  0  0  0  0  0  0  0  0  0  0
    6.4348   10.5886   23.1859 C   0  0  0  0  0  0  0  0  0  0  0  0
    3.2809    5.8293   24.0669 F   0  0  0  0  0  0  0  0  0  0  0  0
    5.0720    8.9279   19.5845 H   0  0  0  0  0  0  0  0  0  0  0  0
    4.1137    7.5182   19.5399 H   0  0  0  0  0  0  0  0  0  0  0  0
    7.2552   11.8040   23.4841 C   0  0  0  0  0  0  0  0  0  0  0  0
    7.0856   14.0587   24.5751 C   0  0  0  0  0  0  0  0  0  0  0  0
    6.4431   12.9485   24.0516 C   0  0  0  0  0  0  0  0  0  0  0  0
    5.0702   12.8708   24.0601 C   0  0  0  0  0  0  0  0  0  0  0  0
    6.3980   15.1438   25.0849 C   0  0  0  0  0  0  0  0  0  0  0  0
    5.0089   15.0925   25.0834 C   0  0  0  0  0  0  0  0  0  0  0  0
    4.3601   13.9587   24.5667 C   0  0  0  0  0  0  0  0  0  0  0  0
    9.1863   14.6280   25.6953 C   0  0  0  0  0  0  0  0  0  0  0  0
    8.4775   14.0728   24.5675 O   0  0  0  0  0  0  0  0  0  0  0  0
    2.9392   13.8418   24.5691 O   0  0  0  0  0  0  0  0  0  0  0  0
    2.2617   12.6976   24.0337 C   0  0  0  0  0  0  0  0  0  0  0  0
 22 21  1  0  0  0
 22 15  1  0  0  0
 14 16  1  0  0  0
 14 10  1  0  0  0
 15 16  2  0  0  0
 15 18  1  0  0  0
 16 17  1  0  0  0
 18 19  2  0  0  0
  9 10  1  0  0  0
  9  6  2  0  0  0
 10  1  2  0  0  0
  8  7  1  0  0  0
 17 20  2  0  0  0
 19 20  1  0  0  0
 20 23  1  0  0  0
  6  7  1  0  0  0
  6  2  1  0  0  0
  7  5  2  0  0  0
 23 24  1  0  0  0
  1  2  2  0  0  0
  2  3  1  0  0  0
  5  4  1  0  0  0
  3  4  2  0  0  0
  4 11  1  0  0  0
  8 12  1  0  0  0
  8 13  1  0  0  0
M  END
> <minimizedAffinity>
-8.44415

$$$$
