


 31 33  0  0  0  0  0  0  0  0999 V2000
    4.9681   11.6085   23.5569 C   0  0  0  0  0  0  0  0  0  0  0  0
    4.3614   12.6445   24.1503 N   0  0  0  0  0  0  0  0  0  0  0  0
    5.3054   13.5365   24.4405 C   0  0  0  0  0  0  0  0  0  0  0  0
    5.3330   14.7643   25.0469 C   0  0  0  0  0  0  0  0  0  0  0  0
    4.1473   15.4035   25.5593 N   0  0  0  0  0  0  0  0  0  0  0  0
    6.4829   13.0394   23.9771 C   0  0  0  0  0  0  0  0  0  0  0  0
    7.6700   13.6384   24.0800 N   0  0  0  0  0  0  0  0  0  0  0  0
    7.6364   14.8490   24.6658 C   0  0  0  0  0  0  0  0  0  0  0  0
    6.4992   15.3995   25.1269 N   0  0  0  0  0  0  0  0  0  0  0  0
    6.3056   11.8510   23.4406 N   0  0  0  0  0  0  0  0  0  0  0  0
    3.2783   14.9440   25.5061 H   0  0  0  0  0  0  0  0  0  0  0  0
    4.2064   16.2997   25.9625 H   0  0  0  0  0  0  0  0  0  0  0  0
    4.2426   10.3758   23.0353 C   0  0  0  0  0  0  0  0  0  0  0  0
    1.4534   11.9116   22.8122 Cl  0  0  0  0  0  0  0  0  0  0  0  0
    1.8014   10.5642   23.9051 C   0  0  0  0  0  0  0  0  0  0  0  0
    0.8198   10.1048   24.8012 C   0  0  0  0  0  0  0  0  0  0  0  0
    1.0687    9.0880   25.6936 C   0  0  0  0  0  0  0  0  0  0  0  0
    2.3039    8.4845   25.7491 C   0  0  0  0  0  0  0  0  0  0  0  0
    3.3130    8.9146   24.8749 C   0  0  0  0  0  0  0  0  0  0  0  0
    3.0765    9.9470   23.9411 C   0  0  0  0  0  0  0  0  0  0  0  0
   -0.5157   10.5565   25.0038 O   0  0  0  0  0  0  0  0  0  0  0  0
   -1.7033   11.0801   24.7626 C   0  0  0  0  0  0  0  0  0  0  0  0
   -0.0295    8.7056   26.5367 O   0  0  0  0  0  0  0  0  0  0  0  0
   -0.0702    9.1008   27.9381 C   0  0  0  0  0  0  0  0  0  0  0  0
    2.4568    7.4723   26.6786 O   0  0  0  0  0  0  0  0  0  0  0  0
    2.9693    6.1673   26.3310 C   0  0  0  0  0  0  0  0  0  0  0  0
    7.3336   10.9855   22.8616 C   0  0  0  0  0  0  0  0  0  0  0  0
    7.9082   10.0433   23.9253 C   0  0  0  0  0  0  0  0  0  0  0  0
    8.0078    8.6144   23.4079 C   0  0  0  0  0  0  0  0  0  0  0  0
    7.1496    7.5980   24.1743 C   0  0  0  0  0  0  0  0  0  0  0  0
    6.5418    6.7485   24.7325 C   0  0  0  0  0  0  0  0  0  0  0  0
 13 20  1  0  0  0
 13  1  1  0  0  0
 31 30  3  0  0  0
 30 29  1  0  0  0
 26 25  1  0  0  0
  2  1  2  0  0  0
  2  3  1  0  0  0
 20 19  1  0  0  0
 20 15  2  0  0  0
 19 18  2  0  0  0
  1 10  1  0  0  0
 29 28  1  0  0  0
  5  4  1  0  0  0
 14 15  1  0  0  0
 15 16  1  0  0  0
 18 25  1  0  0  0
 18 17  1  0  0  0
  3  4  2  0  0  0
  3  6  1  0  0  0
 24 23  1  0  0  0
 16 17  2  0  0  0
 16 21  1  0  0  0
 17 23  1  0  0  0
  4  9  1  0  0  0
 10  6  1  0  0  0
 10 27  1  0  0  0
 21 22  1  0  0  0
 28 27  1  0  0  0
  6  7  2  0  0  0
  9  8  2  0  0  0
  7  8  1  0  0  0
  5 11  1  0  0  0
  5 12  1  0  0  0
M  END
> <minimizedAffinity>
-9.00786

$$$$



 31 33  0  0  0  0  0  0  0  0999 V2000
    4.8511   11.7382   23.6167 C   0  0  0  0  0  0  0  0  0  0  0  0
    4.3406   12.8101   24.2363 N   0  0  0  0  0  0  0  0  0  0  0  0
    5.3514   13.6424   24.4743 C   0  0  0  0  0  0  0  0  0  0  0  0
    5.4856   14.8665   25.0738 C   0  0  0  0  0  0  0  0  0  0  0  0
    4.3694   15.5780   25.6437 N   0  0  0  0  0  0  0  0  0  0  0  0
    6.4707   13.0732   23.9532 C   0  0  0  0  0  0  0  0  0  0  0  0
    7.6961   13.5980   23.9928 N   0  0  0  0  0  0  0  0  0  0  0  0
    7.7672   14.8088   24.5748 C   0  0  0  0  0  0  0  0  0  0  0  0
    6.6913   15.4286   25.0914 N   0  0  0  0  0  0  0  0  0  0  0  0
    6.1932   11.8977   23.4310 N   0  0  0  0  0  0  0  0  0  0  0  0
    3.4722   15.1729   25.6369 H   0  0  0  0  0  0  0  0  0  0  0  0
    4.5042   16.4692   26.0399 H   0  0  0  0  0  0  0  0  0  0  0  0
    4.0252   10.5523   23.1376 C   0  0  0  0  0  0  0  0  0  0  0  0
    3.7037    7.9757   24.9939 Cl  0  0  0  0  0  0  0  0  0  0  0  0
    2.5031    9.2612   24.8013 C   0  0  0  0  0  0  0  0  0  0  0  0
    1.2675    9.1847   25.4683 C   0  0  0  0  0  0  0  0  0  0  0  0
    0.2947   10.1442   25.3091 C   0  0  0  0  0  0  0  0  0  0  0  0
    0.4941   11.2195   24.4742 C   0  0  0  0  0  0  0  0  0  0  0  0
    1.7116   11.3326   23.7868 C   0  0  0  0  0  0  0  0  0  0  0  0
    2.7299   10.3674   23.9452 C   0  0  0  0  0  0  0  0  0  0  0  0
    0.7648    8.1843   26.3486 O   0  0  0  0  0  0  0  0  0  0  0  0
    0.5778    7.0102   26.9224 C   0  0  0  0  0  0  0  0  0  0  0  0
   -0.9111    9.9515   26.0653 O   0  0  0  0  0  0  0  0  0  0  0  0
   -1.0718   10.5503   27.3835 C   0  0  0  0  0  0  0  0  0  0  0  0
   -0.5418   12.1305   24.3805 O   0  0  0  0  0  0  0  0  0  0  0  0
   -1.5246   12.0854   23.3229 C   0  0  0  0  0  0  0  0  0  0  0  0
    7.1349   10.9700   22.8035 C   0  0  0  0  0  0  0  0  0  0  0  0
    7.8331   10.1101   23.8630 C   0  0  0  0  0  0  0  0  0  0  0  0
    8.0392    8.6826   23.3739 C   0  0  0  0  0  0  0  0  0  0  0  0
    7.5158    7.6003   24.3287 C   0  0  0  0  0  0  0  0  0  0  0  0
    7.1138    6.7073   24.9949 C   0  0  0  0  0  0  0  0  0  0  0  0
 13 20  1  0  0  0
 13  1  1  0  0  0
 31 30  3  0  0  0
 30 29  1  0  0  0
 26 25  1  0  0  0
  2  1  2  0  0  0
  2  3  1  0  0  0
 20 19  1  0  0  0
 20 15  2  0  0  0
 19 18  2  0  0  0
  1 10  1  0  0  0
 29 28  1  0  0  0
  5  4  1  0  0  0
 14 15  1  0  0  0
 15 16  1  0  0  0
 18 25  1  0  0  0
 18 17  1  0  0  0
  3  4  2  0  0  0
  3  6  1  0  0  0
 24 23  1  0  0  0
 16 17  2  0  0  0
 16 21  1  0  0  0
 17 23  1  0  0  0
  4  9  1  0  0  0
 10  6  1  0  0  0
 10 27  1  0  0  0
 21 22  1  0  0  0
 28 27  1  0  0  0
  6  7  2  0  0  0
  9  8  2  0  0  0
  7  8  1  0  0  0
  5 11  1  0  0  0
  5 12  1  0  0  0
M  END
> <minimizedAffinity>
-8.96299

$$$$



 31 33  0  0  0  0  0  0  0  0999 V2000
    4.0061   12.0194   23.8114 C   0  0  0  0  0  0  0  0  0  0  0  0
    3.8654   13.2776   24.2479 N   0  0  0  0  0  0  0  0  0  0  0  0
    5.0868   13.7445   24.4954 C   0  0  0  0  0  0  0  0  0  0  0  0
    5.6034   14.9237   24.9628 C   0  0  0  0  0  0  0  0  0  0  0  0
    4.7735   16.0442   25.3271 N   0  0  0  0  0  0  0  0  0  0  0  0
    5.9664   12.7624   24.1634 C   0  0  0  0  0  0  0  0  0  0  0  0
    7.2931   12.8423   24.2724 N   0  0  0  0  0  0  0  0  0  0  0  0
    7.7471   14.0279   24.7175 C   0  0  0  0  0  0  0  0  0  0  0  0
    6.9260   15.0419   25.0438 N   0  0  0  0  0  0  0  0  0  0  0  0
    5.3281   11.6879   23.7517 N   0  0  0  0  0  0  0  0  0  0  0  0
    3.7934   15.9694   25.2715 H   0  0  0  0  0  0  0  0  0  0  0  0
    5.1866   16.8843   25.6316 H   0  0  0  0  0  0  0  0  0  0  0  0
    2.8487   11.1265   23.3855 C   0  0  0  0  0  0  0  0  0  0  0  0
    0.0377   11.8749   24.6992 Cl  0  0  0  0  0  0  0  0  0  0  0  0
    1.0675   10.5174   25.1766 C   0  0  0  0  0  0  0  0  0  0  0  0
    0.6897    9.6791   26.2405 C   0  0  0  0  0  0  0  0  0  0  0  0
    1.4852    8.6405   26.6657 C   0  0  0  0  0  0  0  0  0  0  0  0
    2.6973    8.3887   26.0654 C   0  0  0  0  0  0  0  0  0  0  0  0
    3.1143    9.2032   25.0023 C   0  0  0  0  0  0  0  0  0  0  0  0
    2.3082   10.2663   24.5397 C   0  0  0  0  0  0  0  0  0  0  0  0
   -0.4681    9.7197   27.0691 O   0  0  0  0  0  0  0  0  0  0  0  0
   -1.3914   10.1714   27.8974 C   0  0  0  0  0  0  0  0  0  0  0  0
    0.9680    7.8524   27.7493 O   0  0  0  0  0  0  0  0  0  0  0  0
    1.5628    7.9233   29.0771 C   0  0  0  0  0  0  0  0  0  0  0  0
    3.4246    7.3231   26.5629 O   0  0  0  0  0  0  0  0  0  0  0  0
    3.9748    6.2922   25.7137 C   0  0  0  0  0  0  0  0  0  0  0  0
    5.9229   10.4169   23.3366 C   0  0  0  0  0  0  0  0  0  0  0  0
    6.9938   10.6464   22.2644 C   0  0  0  0  0  0  0  0  0  0  0  0
    8.1964    9.7361   22.4749 C   0  0  0  0  0  0  0  0  0  0  0  0
    7.9715    8.6083   23.4919 C   0  0  0  0  0  0  0  0  0  0  0  0
    7.8868    7.7432   24.2963 C   0  0  0  0  0  0  0  0  0  0  0  0
 13 20  1  0  0  0
 13  1  1  0  0  0
 31 30  3  0  0  0
 30 29  1  0  0  0
 26 25  1  0  0  0
  2  1  2  0  0  0
  2  3  1  0  0  0
 20 19  1  0  0  0
 20 15  2  0  0  0
 19 18  2  0  0  0
  1 10  1  0  0  0
 29 28  1  0  0  0
  5  4  1  0  0  0
 14 15  1  0  0  0
 15 16  1  0  0  0
 18 25  1  0  0  0
 18 17  1  0  0  0
  3  4  2  0  0  0
  3  6  1  0  0  0
 24 23  1  0  0  0
 16 17  2  0  0  0
 16 21  1  0  0  0
 17 23  1  0  0  0
  4  9  1  0  0  0
 10  6  1  0  0  0
 10 27  1  0  0  0
 21 22  1  0  0  0
 28 27  1  0  0  0
  6  7  2  0  0  0
  9  8  2  0  0  0
  7  8  1  0  0  0
  5 11  1  0  0  0
  5 12  1  0  0  0
M  END
> <minimizedAffinity>
-8.07865

$$$$
