


 30 32  0  0  0  0  0  0  0  0999 V2000
    4.8101   11.6792   23.6297 C   0  0  0  0  0  0  0  0  0  0  0  0
    4.3660   12.7638   24.2576 N   0  0  0  0  0  0  0  0  0  0  0  0
    5.4032   13.5496   24.4567 C   0  0  0  0  0  0  0  0  0  0  0  0
    5.5249   14.7967   25.0556 C   0  0  0  0  0  0  0  0  0  0  0  0
    4.3862   15.4883   25.6701 N   0  0  0  0  0  0  0  0  0  0  0  0
    6.5117   12.9446   23.8851 C   0  0  0  0  0  0  0  0  0  0  0  0
    7.7151   13.5525   23.9063 N   0  0  0  0  0  0  0  0  0  0  0  0
    7.7820   14.7658   24.4924 C   0  0  0  0  0  0  0  0  0  0  0  0
    6.7149   15.3797   25.0489 N   0  0  0  0  0  0  0  0  0  0  0  0
    6.1120   11.7774   23.3858 N   0  0  0  0  0  0  0  0  0  0  0  0
    3.4985   15.0626   25.6796 H   0  0  0  0  0  0  0  0  0  0  0  0
    4.5097   16.3781   26.0730 H   0  0  0  0  0  0  0  0  0  0  0  0
    3.9492   10.5203   23.2079 C   0  0  0  0  0  0  0  0  0  0  0  0
    0.3626   11.0302   24.5439 C   0  0  0  0  0  0  0  0  0  0  0  0
    1.4986   11.2343   23.7514 C   0  0  0  0  0  0  0  0  0  0  0  0
    0.3643   10.0405   25.5166 C   0  0  0  0  0  0  0  0  0  0  0  0
    1.4653    9.2440   25.7255 C   0  0  0  0  0  0  0  0  0  0  0  0
    2.5907    9.4450   24.9474 C   0  0  0  0  0  0  0  0  0  0  0  0
    2.6355   10.4218   23.9735 C   0  0  0  0  0  0  0  0  0  0  0  0
    1.4884   12.5036   22.5490 Cl  0  0  0  0  0  0  0  0  0  0  0  0
   -1.8222   11.8226   23.4902 C   0  0  0  0  0  0  0  0  0  0  0  0
   -0.8351   11.8163   24.4939 O   0  0  0  0  0  0  0  0  0  0  0  0
   -0.8129    9.8617   26.2819 O   0  0  0  0  0  0  0  0  0  0  0  0
   -0.8830   10.4319   27.6000 C   0  0  0  0  0  0  0  0  0  0  0  0
    1.4247    8.2011   26.7029 O   0  0  0  0  0  0  0  0  0  0  0  0
    2.3391    8.1505   27.8134 C   0  0  0  0  0  0  0  0  0  0  0  0
    6.9340   10.7723   22.7005 C   0  0  0  0  0  0  0  0  0  0  0  0
    7.9019   10.1442   23.6760 C   0  0  0  0  0  0  0  0  0  0  0  0
    7.6966    8.7229   24.1957 C   0  0  0  0  0  0  0  0  0  0  0  0
    6.6020    7.8496   23.6060 C   0  0  0  0  0  0  0  0  0  0  0  0
 13 19  1  0  0  0
 13  1  1  0  0  0
 26 25  1  0  0  0
 18 19  2  0  0  0
 18 17  1  0  0  0
 19 15  1  0  0  0
  2  1  2  0  0  0
  2  3  1  0  0  0
 30 29  1  0  0  0
  1 10  1  0  0  0
  5  4  1  0  0  0
 25 17  1  0  0  0
 17 16  2  0  0  0
 15 20  1  0  0  0
 15 14  2  0  0  0
 29 28  2  0  0  0
  3  4  2  0  0  0
  3  6  1  0  0  0
 24 23  1  0  0  0
 16 14  1  0  0  0
 16 23  1  0  0  0
 14 22  1  0  0  0
  4  9  1  0  0  0
 10  6  1  0  0  0
 10 27  1  0  0  0
 22 21  1  0  0  0
  6  7  2  0  0  0
 27 28  1  0  0  0
  9  8  2  0  0  0
  7  8  1  0  0  0
  5 11  1  0  0  0
  5 12  1  0  0  0
M  END
> <minimizedAffinity>
-9.34867

$$$$



 30 32  0  0  0  0  0  0  0  0999 V2000
    4.8862   11.8149   23.6186 C   0  0  0  0  0  0  0  0  0  0  0  0
    4.4764   12.9155   24.2418 N   0  0  0  0  0  0  0  0  0  0  0  0
    5.5417   13.6567   24.4624 C   0  0  0  0  0  0  0  0  0  0  0  0
    5.7044   14.8962   25.0674 C   0  0  0  0  0  0  0  0  0  0  0  0
    4.5845   15.6333   25.6632 N   0  0  0  0  0  0  0  0  0  0  0  0
    6.6343   13.0073   23.9092 C   0  0  0  0  0  0  0  0  0  0  0  0
    7.8614   13.5641   23.9543 N   0  0  0  0  0  0  0  0  0  0  0  0
    7.9683   14.7722   24.5455 C   0  0  0  0  0  0  0  0  0  0  0  0
    6.9177   15.4288   25.0843 N   0  0  0  0  0  0  0  0  0  0  0  0
    6.1954   11.8590   23.3989 N   0  0  0  0  0  0  0  0  0  0  0  0
    3.6798   15.2451   25.6551 H   0  0  0  0  0  0  0  0  0  0  0  0
    4.7377   16.5161   26.0712 H   0  0  0  0  0  0  0  0  0  0  0  0
    3.9855   10.6941   23.1774 C   0  0  0  0  0  0  0  0  0  0  0  0
    0.8687   10.3649   25.4326 C   0  0  0  0  0  0  0  0  0  0  0  0
    1.6916   10.8550   24.4114 C   0  0  0  0  0  0  0  0  0  0  0  0
    1.3077    9.3228   26.2369 C   0  0  0  0  0  0  0  0  0  0  0  0
    2.5446    8.7505   26.0555 C   0  0  0  0  0  0  0  0  0  0  0  0
    3.3620    9.2344   25.0505 C   0  0  0  0  0  0  0  0  0  0  0  0
    2.9689   10.2733   24.2315 C   0  0  0  0  0  0  0  0  0  0  0  0
    1.1333   12.1863   23.4251 Cl  0  0  0  0  0  0  0  0  0  0  0  0
   -1.6138   10.8197   25.0562 C   0  0  0  0  0  0  0  0  0  0  0  0
   -0.4144   10.8950   25.7895 O   0  0  0  0  0  0  0  0  0  0  0  0
    0.4341    8.8512   27.2458 O   0  0  0  0  0  0  0  0  0  0  0  0
   -0.1171    7.5282   27.1307 C   0  0  0  0  0  0  0  0  0  0  0  0
    2.9541    7.6477   26.8683 O   0  0  0  0  0  0  0  0  0  0  0  0
    3.5831    6.4763   26.3169 C   0  0  0  0  0  0  0  0  0  0  0  0
    6.9870   10.8221   22.7255 C   0  0  0  0  0  0  0  0  0  0  0  0
    7.9075   10.1495   23.7171 C   0  0  0  0  0  0  0  0  0  0  0  0
    7.6557    8.7202   24.1925 C   0  0  0  0  0  0  0  0  0  0  0  0
    6.5650    7.8851   23.5432 C   0  0  0  0  0  0  0  0  0  0  0  0
 13 19  1  0  0  0
 13  1  1  0  0  0
 26 25  1  0  0  0
 18 19  2  0  0  0
 18 17  1  0  0  0
 19 15  1  0  0  0
  2  1  2  0  0  0
  2  3  1  0  0  0
 30 29  1  0  0  0
  1 10  1  0  0  0
  5  4  1  0  0  0
 25 17  1  0  0  0
 17 16  2  0  0  0
 15 20  1  0  0  0
 15 14  2  0  0  0
 29 28  2  0  0  0
  3  4  2  0  0  0
  3  6  1  0  0  0
 24 23  1  0  0  0
 16 14  1  0  0  0
 16 23  1  0  0  0
 14 22  1  0  0  0
  4  9  1  0  0  0
 10  6  1  0  0  0
 10 27  1  0  0  0
 22 21  1  0  0  0
  6  7  2  0  0  0
 27 28  1  0  0  0
  9  8  2  0  0  0
  7  8  1  0  0  0
  5 11  1  0  0  0
  5 12  1  0  0  0
M  END
> <minimizedAffinity>
-9.03846

$$$$



 30 32  0  0  0  0  0  0  0  0999 V2000
    4.8062   11.6307   23.5637 C   0  0  0  0  0  0  0  0  0  0  0  0
    4.3285   12.7055   24.1836 N   0  0  0  0  0  0  0  0  0  0  0  0
    5.3487   13.5032   24.4202 C   0  0  0  0  0  0  0  0  0  0  0  0
    5.4353   14.7480   25.0300 C   0  0  0  0  0  0  0  0  0  0  0  0
    4.2689   15.4212   25.6119 N   0  0  0  0  0  0  0  0  0  0  0  0
    6.4825   12.9159   23.8806 C   0  0  0  0  0  0  0  0  0  0  0  0
    7.6767   13.5387   23.9436 N   0  0  0  0  0  0  0  0  0  0  0  0
    7.7094   14.7491   24.5388 C   0  0  0  0  0  0  0  0  0  0  0  0
    6.6173   15.3459   25.0645 N   0  0  0  0  0  0  0  0  0  0  0  0
    6.1138   11.7468   23.3620 N   0  0  0  0  0  0  0  0  0  0  0  0
    3.3869   14.9843   25.5907 H   0  0  0  0  0  0  0  0  0  0  0  0
    4.3681   16.3099   26.0238 H   0  0  0  0  0  0  0  0  0  0  0  0
    3.9741   10.4637   23.1080 C   0  0  0  0  0  0  0  0  0  0  0  0
    1.2169    9.1536   25.4724 C   0  0  0  0  0  0  0  0  0  0  0  0
    2.4480    9.2011   24.8073 C   0  0  0  0  0  0  0  0  0  0  0  0
    0.2733   10.1478   25.2565 C   0  0  0  0  0  0  0  0  0  0  0  0
    0.5177   11.1923   24.3965 C   0  0  0  0  0  0  0  0  0  0  0  0
    1.7310   11.2407   23.7346 C   0  0  0  0  0  0  0  0  0  0  0  0
    2.6956   10.2702   23.9140 C   0  0  0  0  0  0  0  0  0  0  0  0
    3.6146    7.9257   25.0707 Cl  0  0  0  0  0  0  0  0  0  0  0  0
    0.2387    6.8544   25.9906 C   0  0  0  0  0  0  0  0  0  0  0  0
    0.7868    8.1015   26.3460 O   0  0  0  0  0  0  0  0  0  0  0  0
   -0.9501   10.0649   25.9636 O   0  0  0  0  0  0  0  0  0  0  0  0
   -1.0151   10.5674   27.3092 C   0  0  0  0  0  0  0  0  0  0  0  0
   -0.4534   12.2280   24.2269 O   0  0  0  0  0  0  0  0  0  0  0  0
   -1.4972   12.1508   23.2388 C   0  0  0  0  0  0  0  0  0  0  0  0
    6.9699   10.7565   22.6973 C   0  0  0  0  0  0  0  0  0  0  0  0
    7.9392   10.1611   23.6919 C   0  0  0  0  0  0  0  0  0  0  0  0
    7.8068    8.7141   24.1622 C   0  0  0  0  0  0  0  0  0  0  0  0
    6.7938    7.7918   23.5050 C   0  0  0  0  0  0  0  0  0  0  0  0
 13 19  1  0  0  0
 13  1  1  0  0  0
 26 25  1  0  0  0
 18 19  2  0  0  0
 18 17  1  0  0  0
 19 15  1  0  0  0
  2  1  2  0  0  0
  2  3  1  0  0  0
 30 29  1  0  0  0
  1 10  1  0  0  0
  5  4  1  0  0  0
 25 17  1  0  0  0
 17 16  2  0  0  0
 15 20  1  0  0  0
 15 14  2  0  0  0
 29 28  2  0  0  0
  3  4  2  0  0  0
  3  6  1  0  0  0
 24 23  1  0  0  0
 16 14  1  0  0  0
 16 23  1  0  0  0
 14 22  1  0  0  0
  4  9  1  0  0  0
 10  6  1  0  0  0
 10 27  1  0  0  0
 22 21  1  0  0  0
  6  7  2  0  0  0
 27 28  1  0  0  0
  9  8  2  0  0  0
  7  8  1  0  0  0
  5 11  1  0  0  0
  5 12  1  0  0  0
M  END
> <minimizedAffinity>
-8.97992

$$$$
