BDB33240


 33 35  0  0  0  0  0  0  0  0999 V2000
    1.1674   11.9167   23.5059 C   0  0  0  0  0  0  0  0  0  0  0  0
    0.6137   12.4620   22.4188 N   0  0  0  0  0  0  0  0  0  0  0  0
   -0.7098   12.4838   22.2004 C   0  0  0  0  0  0  0  0  0  0  0  0
   -1.5732   11.9562   23.0643 N   0  0  0  0  0  0  0  0  0  0  0  0
    0.2584   11.3633   24.4116 C   0  0  0  0  0  0  0  0  0  0  0  0
    0.5299   10.7377   25.6102 C   0  0  0  0  0  0  0  0  0  0  0  0
   -1.0996   11.4002   24.1608 C   0  0  0  0  0  0  0  0  0  0  0  0
   -1.9997   10.6752   25.3862 S   0  0  0  0  0  0  0  0  0  0  0  0
   -0.6134   10.3043   26.2613 C   0  0  0  0  0  0  0  0  0  0  0  0
   -1.2403   13.0878   21.0074 N   0  0  0  0  0  0  0  0  0  0  0  0
   -0.6110   13.5074   20.3127 H   0  0  0  0  0  0  0  0  0  0  0  0
   -2.2637   13.0989   20.8494 H   0  0  0  0  0  0  0  0  0  0  0  0
    2.7587   11.9614   23.6368 C   0  0  0  0  0  0  0  0  0  0  0  0
    5.5751   11.7158   23.7402 C   0  0  0  0  0  0  0  0  0  0  0  0
    4.9578   12.8735   24.1532 C   0  0  0  0  0  0  0  0  0  0  0  0
    3.5800   13.0127   24.1100 C   0  0  0  0  0  0  0  0  0  0  0  0
    3.4134   10.7946   23.2231 C   0  0  0  0  0  0  0  0  0  0  0  0
    4.8026   10.6724   23.2737 C   0  0  0  0  0  0  0  0  0  0  0  0
    7.2876   11.5797   23.8084 Cl  0  0  0  0  0  0  0  0  0  0  0  0
    3.1068   14.5389   24.6787 Cl  0  0  0  0  0  0  0  0  0  0  0  0
    5.4745    9.5354   22.8731 O   0  0  0  0  0  0  0  0  0  0  0  0
    5.8697    9.5598   21.5246 C   0  0  0  0  0  0  0  0  0  0  0  0
    4.9035    8.6833   20.7796 C   0  0  0  0  0  0  0  0  0  0  0  0
    4.4518    7.4788   21.3566 N   0  0  0  0  0  0  0  0  0  0  0  0
    4.5036    9.0176   19.6603 O   0  0  0  0  0  0  0  0  0  0  0  0
    4.7695    7.2012   22.2601 H   0  0  0  0  0  0  0  0  0  0  0  0
    3.8125    6.9013   20.8610 H   0  0  0  0  0  0  0  0  0  0  0  0
   -0.5462    9.6128   27.5546 C   0  0  0  0  0  0  0  0  0  0  0  0
    0.5372    8.7388   27.8016 N   0  0  0  0  0  0  0  0  0  0  0  0
   -1.4171    9.7885   28.4122 O   0  0  0  0  0  0  0  0  0  0  0  0
    1.2267    8.6050   27.1118 H   0  0  0  0  0  0  0  0  0  0  0  0
    0.6576    8.0378   29.0393 C   0  0  0  0  0  0  0  0  0  0  0  0
    2.1591    7.8493   29.3522 C   0  0  0  0  0  0  0  0  0  0  0  0
  1  2  1  0  0  0
  1  5  2  0  0  0
  1 13  1  0  0  0
  2  3  2  0  0  0
  3  4  1  0  0  0
  3 10  1  0  0  0
  4  7  2  0  0  0
  5  7  1  0  0  0
  6  5  1  0  0  0
  6  9  2  0  0  0
  7  8  1  0  0  0
  8  9  1  0  0  0
  9 28  1  0  0  0
 13 17  1  0  0  0
 10 11  1  0  0  0
 10 12  1  0  0  0
 28 29  1  0  0  0
 28 30  2  0  0  0
 29 32  1  0  0  0
 29 31  1  0  0  0
 14 15  2  0  0  0
 14 18  1  0  0  0
 14 19  1  0  0  0
 15 16  1  0  0  0
 16 13  2  0  0  0
 16 20  1  0  0  0
 17 18  2  0  0  0
 18 21  1  0  0  0
 32 33  1  0  0  0
 21 22  1  0  0  0
 22 23  1  0  0  0
 23 24  1  0  0  0
 23 25  2  0  0  0
 24 26  1  0  0  0
 24 27  1  0  0  0
M  END
> <minimizedAffinity>
-9.43888

$$$$
BDB33240


 33 35  0  0  0  0  0  0  0  0999 V2000
    4.1215   12.1561   24.0597 C   0  0  0  0  0  0  0  0  0  0  0  0
    2.8036   12.3704   24.0060 N   0  0  0  0  0  0  0  0  0  0  0  0
    2.2409   13.5592   24.2705 C   0  0  0  0  0  0  0  0  0  0  0  0
    2.9678   14.6207   24.6093 N   0  0  0  0  0  0  0  0  0  0  0  0
    4.8827   13.2727   24.4157 C   0  0  0  0  0  0  0  0  0  0  0  0
    6.2524   13.3568   24.5518 C   0  0  0  0  0  0  0  0  0  0  0  0
    4.2763   14.4848   24.6827 C   0  0  0  0  0  0  0  0  0  0  0  0
    5.3872   15.6838   25.0894 S   0  0  0  0  0  0  0  0  0  0  0  0
    6.6793   14.6224   24.9191 C   0  0  0  0  0  0  0  0  0  0  0  0
    0.8135   13.7214   24.1941 N   0  0  0  0  0  0  0  0  0  0  0  0
    0.2130   12.9292   23.9364 H   0  0  0  0  0  0  0  0  0  0  0  0
    0.3901   14.6438   24.4004 H   0  0  0  0  0  0  0  0  0  0  0  0
    4.6549   10.6894   23.7199 C   0  0  0  0  0  0  0  0  0  0  0  0
    5.3017    7.9745   23.2573 C   0  0  0  0  0  0  0  0  0  0  0  0
    6.1706    8.9741   22.8864 C   0  0  0  0  0  0  0  0  0  0  0  0
    5.8717   10.3092   23.1045 C   0  0  0  0  0  0  0  0  0  0  0  0
    3.7893    9.6516   24.0872 C   0  0  0  0  0  0  0  0  0  0  0  0
    4.1073    8.3121   23.8595 C   0  0  0  0  0  0  0  0  0  0  0  0
    5.7070    6.3285   22.9703 Cl  0  0  0  0  0  0  0  0  0  0  0  0
    7.1227   11.3095   22.5470 Cl  0  0  0  0  0  0  0  0  0  0  0  0
    3.2744    7.2692   24.2107 O   0  0  0  0  0  0  0  0  0  0  0  0
    2.0839    7.6833   24.8323 C   0  0  0  0  0  0  0  0  0  0  0  0
    0.9597    7.0199   24.0887 C   0  0  0  0  0  0  0  0  0  0  0  0
   -0.3353    6.9892   24.6454 N   0  0  0  0  0  0  0  0  0  0  0  0
    1.1692    6.5006   22.9882 O   0  0  0  0  0  0  0  0  0  0  0  0
   -0.5133    7.4062   25.5335 H   0  0  0  0  0  0  0  0  0  0  0  0
   -1.0767    6.5496   24.1507 H   0  0  0  0  0  0  0  0  0  0  0  0
    8.1018   14.9266   25.1174 C   0  0  0  0  0  0  0  0  0  0  0  0
    8.5641   15.1863   26.4279 N   0  0  0  0  0  0  0  0  0  0  0  0
    8.8820   14.9560   24.1607 O   0  0  0  0  0  0  0  0  0  0  0  0
    7.9345   15.1605   27.1843 H   0  0  0  0  0  0  0  0  0  0  0  0
    9.9355   15.4882   26.6845 C   0  0  0  0  0  0  0  0  0  0  0  0
   10.6840   14.1663   26.9683 C   0  0  0  0  0  0  0  0  0  0  0  0
  1  2  1  0  0  0
  1  5  2  0  0  0
  1 13  1  0  0  0
  2  3  2  0  0  0
  3  4  1  0  0  0
  3 10  1  0  0  0
  4  7  2  0  0  0
  5  7  1  0  0  0
  6  5  1  0  0  0
  6  9  2  0  0  0
  7  8  1  0  0  0
  8  9  1  0  0  0
  9 28  1  0  0  0
 13 17  1  0  0  0
 10 11  1  0  0  0
 10 12  1  0  0  0
 28 29  1  0  0  0
 28 30  2  0  0  0
 29 32  1  0  0  0
 29 31  1  0  0  0
 14 15  2  0  0  0
 14 18  1  0  0  0
 14 19  1  0  0  0
 15 16  1  0  0  0
 16 13  2  0  0  0
 16 20  1  0  0  0
 17 18  2  0  0  0
 18 21  1  0  0  0
 32 33  1  0  0  0
 21 22  1  0  0  0
 22 23  1  0  0  0
 23 24  1  0  0  0
 23 25  2  0  0  0
 24 26  1  0  0  0
 24 27  1  0  0  0
M  END
> <minimizedAffinity>
-9.23539

$$$$
BDB33240


 33 35  0  0  0  0  0  0  0  0999 V2000
    2.9049   12.2870   23.9048 C   0  0  0  0  0  0  0  0  0  0  0  0
    2.0957   12.8856   23.0259 N   0  0  0  0  0  0  0  0  0  0  0  0
    0.8673   12.4336   22.7316 C   0  0  0  0  0  0  0  0  0  0  0  0
    0.3645   11.3426   23.3033 N   0  0  0  0  0  0  0  0  0  0  0  0
    2.3743   11.1413   24.5040 C   0  0  0  0  0  0  0  0  0  0  0  0
    2.9684   10.3214   25.4401 C   0  0  0  0  0  0  0  0  0  0  0  0
    1.1060   10.6988   24.1816 C   0  0  0  0  0  0  0  0  0  0  0  0
    0.6781    9.3044   25.0242 S   0  0  0  0  0  0  0  0  0  0  0  0
    2.1565    9.2665   25.8232 C   0  0  0  0  0  0  0  0  0  0  0  0
    0.0471   13.1270   21.7745 N   0  0  0  0  0  0  0  0  0  0  0  0
    0.3943   13.9737   21.3084 H   0  0  0  0  0  0  0  0  0  0  0  0
   -0.8996   12.7690   21.5551 H   0  0  0  0  0  0  0  0  0  0  0  0
    4.3427   12.9346   24.1588 C   0  0  0  0  0  0  0  0  0  0  0  0
    7.0210   13.7944   24.4601 C   0  0  0  0  0  0  0  0  0  0  0  0
    5.9802   14.5800   24.8976 C   0  0  0  0  0  0  0  0  0  0  0  0
    4.6622   14.1762   24.7588 C   0  0  0  0  0  0  0  0  0  0  0  0
    5.4214   12.1552   23.7228 C   0  0  0  0  0  0  0  0  0  0  0  0
    6.7429   12.5783   23.8709 C   0  0  0  0  0  0  0  0  0  0  0  0
    8.6441   14.3287   24.6493 Cl  0  0  0  0  0  0  0  0  0  0  0  0
    3.6018   15.3421   25.3857 Cl  0  0  0  0  0  0  0  0  0  0  0  0
    7.8252   11.8318   23.4511 O   0  0  0  0  0  0  0  0  0  0  0  0
    7.7230   10.4655   23.7639 C   0  0  0  0  0  0  0  0  0  0  0  0
    7.8224    9.7201   22.4635 C   0  0  0  0  0  0  0  0  0  0  0  0
    8.3832    8.4270   22.4307 N   0  0  0  0  0  0  0  0  0  0  0  0
    7.4124   10.2399   21.4212 O   0  0  0  0  0  0  0  0  0  0  0  0
    8.7167    7.9997   23.2676 H   0  0  0  0  0  0  0  0  0  0  0  0
    8.4474    7.9366   21.5686 H   0  0  0  0  0  0  0  0  0  0  0  0
    2.5990    8.2750   26.8113 C   0  0  0  0  0  0  0  0  0  0  0  0
    2.1809    8.4213   28.1538 N   0  0  0  0  0  0  0  0  0  0  0  0
    3.3223    7.3306   26.4800 O   0  0  0  0  0  0  0  0  0  0  0  0
    1.6042    9.1775   28.4085 H   0  0  0  0  0  0  0  0  0  0  0  0
    2.5782    7.4901   29.1601 C   0  0  0  0  0  0  0  0  0  0  0  0
    1.5900    7.5953   30.3436 C   0  0  0  0  0  0  0  0  0  0  0  0
  1  2  1  0  0  0
  1  5  2  0  0  0
  1 13  1  0  0  0
  2  3  2  0  0  0
  3  4  1  0  0  0
  3 10  1  0  0  0
  4  7  2  0  0  0
  5  7  1  0  0  0
  6  5  1  0  0  0
  6  9  2  0  0  0
  7  8  1  0  0  0
  8  9  1  0  0  0
  9 28  1  0  0  0
 13 17  1  0  0  0
 10 11  1  0  0  0
 10 12  1  0  0  0
 28 29  1  0  0  0
 28 30  2  0  0  0
 29 32  1  0  0  0
 29 31  1  0  0  0
 14 15  2  0  0  0
 14 18  1  0  0  0
 14 19  1  0  0  0
 15 16  1  0  0  0
 16 13  2  0  0  0
 16 20  1  0  0  0
 17 18  2  0  0  0
 18 21  1  0  0  0
 32 33  1  0  0  0
 21 22  1  0  0  0
 22 23  1  0  0  0
 23 24  1  0  0  0
 23 25  2  0  0  0
 24 26  1  0  0  0
 24 27  1  0  0  0
M  END
> <minimizedAffinity>
-9.22635

$$$$
