ZINC24759702


 38 42  0  0  0  0  0  0  0  0999 V2000
    1.3950    8.0638   26.8899 N   0  0  0  0  0  0  0  0  0  0  0  0
    2.5544    7.6100   26.3603 C   0  0  0  0  0  0  0  0  0  0  0  0
    2.8850    6.4439   26.4721 O   0  0  0  0  0  0  0  0  0  0  0  0
    3.4005    8.5767   25.6436 C   0  0  0  0  0  0  0  0  0  0  0  0
    4.6125    8.2010   25.0648 C   0  0  0  0  0  0  0  0  0  0  0  0
    5.3659    9.1270   24.4022 C   0  0  0  0  0  0  0  0  0  0  0  0
    4.9394   10.4577   24.3077 C   0  0  0  0  0  0  0  0  0  0  0  0
    3.7364   10.8543   24.8772 C   0  0  0  0  0  0  0  0  0  0  0  0
    2.9531    9.9143   25.5527 C   0  0  0  0  0  0  0  0  0  0  0  0
    1.7736   10.2563   26.1224 N   0  0  0  0  0  0  0  0  0  0  0  0
    1.0374    9.3769   26.7558 C   0  0  0  0  0  0  0  0  0  0  0  0
   -0.4839    9.9106   27.4669 S   0  0  0  0  0  0  0  0  0  0  0  0
    2.1246    5.9362   26.0924 H   0  0  0  0  0  0  0  0  0  0  0  0
   -0.1010    6.1000   31.1430 C   0  0  0  0  0  0  0  0  0  0  0  0
   -0.1913    6.2103   29.6427 C   0  0  0  0  0  0  0  0  0  0  0  0
   -1.1052    5.4398   28.9471 C   0  0  0  0  0  0  0  0  0  0  0  0
   -1.1911    5.5381   27.5707 C   0  0  0  0  0  0  0  0  0  0  0  0
   -0.3637    6.4069   26.8860 C   0  0  0  0  0  0  0  0  0  0  0  0
    0.5548    7.1818   27.5814 C   0  0  0  0  0  0  0  0  0  0  0  0
    0.6425    7.0766   28.9633 C   0  0  0  0  0  0  0  0  0  0  0  0
    1.6427    7.9110   29.7214 C   0  0  0  0  0  0  0  0  0  0  0  0
    5.7743   11.4477   23.5902 C   0  0  0  0  0  0  0  0  0  0  0  0
    6.0872   11.2533   22.4321 O   0  0  0  0  0  0  0  0  0  0  0  0
    6.1872   12.5647   24.2215 N   0  0  0  0  0  0  0  0  0  0  0  0
    5.9220   12.7295   25.2030 H   0  0  0  0  0  0  0  0  0  0  0  0
    6.9772   13.5016   23.5424 N   0  0  0  0  0  0  0  0  0  0  0  0
    7.4262   14.5972   24.1861 C   0  0  0  0  0  0  0  0  0  0  0  0
    7.1455   14.7727   25.3561 O   0  0  0  0  0  0  0  0  0  0  0  0
    7.2148   13.3530   22.5513 H   0  0  0  0  0  0  0  0  0  0  0  0
    8.2585   15.5843   23.4709 C   0  0  0  0  0  0  0  0  0  0  0  0
    9.6393   15.6189   23.6803 C   0  0  0  0  0  0  0  0  0  0  0  0
   10.4145   16.5414   23.0126 C   0  0  0  0  0  0  0  0  0  0  0  0
    9.8281   17.4394   22.1305 C   0  0  0  0  0  0  0  0  0  0  0  0
    8.4495   17.4097   21.9165 C   0  0  0  0  0  0  0  0  0  0  0  0
    7.6673   16.4869   22.5831 C   0  0  0  0  0  0  0  0  0  0  0  0
    8.1279   18.3832   21.0148 O   0  0  0  0  0  0  0  0  0  0  0  0
    9.3673   18.7359   20.3727 C   0  0  0  0  0  0  0  0  0  0  0  0
   10.3659   18.4305   21.3638 O   0  0  0  0  0  0  0  0  0  0  0  0
 14 15  1  0  0  0
 15 20  2  0  0  0
 15 16  1  0  0  0
 16 17  2  0  0  0
 17 18  1  0  0  0
 18 19  2  0  0  0
 19 20  1  0  0  0
 19  1  1  0  0  0
 20 21  1  0  0  0
  1 11  1  0  0  0
  1  2  1  0  0  0
  2  3  1  0  0  0
  2  4  2  0  0  0
  3 13  1  0  0  0
  4  9  1  0  0  0
  4  5  1  0  0  0
  5  6  2  0  0  0
  6  7  1  0  0  0
  7  8  2  0  0  0
  7 22  1  0  0  0
  8  9  1  0  0  0
  9 10  2  0  0  0
 10 11  1  0  0  0
 11 12  2  0  0  0
 22 23  2  0  0  0
 22 24  1  0  0  0
 24 26  1  0  0  0
 24 25  1  0  0  0
 26 27  1  0  0  0
 26 29  1  0  0  0
 27 28  2  0  0  0
 27 30  1  0  0  0
 30 35  2  0  0  0
 30 31  1  0  0  0
 31 32  2  0  0  0
 32 33  1  0  0  0
 33 38  1  0  0  0
 33 34  2  0  0  0
 34 35  1  0  0  0
 34 36  1  0  0  0
 36 37  1  0  0  0
 37 38  1  0  0  0
M  END
> <minimizedAffinity>
29.64642

$$$$
ZINC24759702


 38 42  0  0  0  0  0  0  0  0999 V2000
   -2.0961   13.3519   22.2157 N   0  0  0  0  0  0  0  0  0  0  0  0
   -1.6841   12.5826   23.2497 C   0  0  0  0  0  0  0  0  0  0  0  0
   -2.4737   11.9187   23.8955 O   0  0  0  0  0  0  0  0  0  0  0  0
   -0.2471   12.5770   23.5643 C   0  0  0  0  0  0  0  0  0  0  0  0
    0.2701   11.8150   24.6117 C   0  0  0  0  0  0  0  0  0  0  0  0
    1.6111   11.8318   24.8675 C   0  0  0  0  0  0  0  0  0  0  0  0
    2.4747   12.6184   24.0947 C   0  0  0  0  0  0  0  0  0  0  0  0
    1.9815   13.3857   23.0475 C   0  0  0  0  0  0  0  0  0  0  0  0
    0.6114   13.3720   22.7715 C   0  0  0  0  0  0  0  0  0  0  0  0
    0.0871   14.1038   21.7603 N   0  0  0  0  0  0  0  0  0  0  0  0
   -1.1967   14.0924   21.4995 C   0  0  0  0  0  0  0  0  0  0  0  0
   -1.7918   15.0757   20.1640 S   0  0  0  0  0  0  0  0  0  0  0  0
   -2.9282   11.3539   23.2212 H   0  0  0  0  0  0  0  0  0  0  0  0
   -5.7013   12.2771   19.0486 C   0  0  0  0  0  0  0  0  0  0  0  0
   -5.2291   12.8772   20.3479 C   0  0  0  0  0  0  0  0  0  0  0  0
   -6.1382   13.4671   21.2071 C   0  0  0  0  0  0  0  0  0  0  0  0
   -5.7089   14.0187   22.4000 C   0  0  0  0  0  0  0  0  0  0  0  0
   -4.3697   13.9821   22.7371 C   0  0  0  0  0  0  0  0  0  0  0  0
   -3.4546   13.3906   21.8767 C   0  0  0  0  0  0  0  0  0  0  0  0
   -3.8883   12.8425   20.6766 C   0  0  0  0  0  0  0  0  0  0  0  0
   -2.8973   12.2055   19.7366 C   0  0  0  0  0  0  0  0  0  0  0  0
    3.9249   12.6274   24.3927 C   0  0  0  0  0  0  0  0  0  0  0  0
    4.5181   11.5795   24.5565 O   0  0  0  0  0  0  0  0  0  0  0  0
    4.5872   13.7979   24.4822 N   0  0  0  0  0  0  0  0  0  0  0  0
    4.0844   14.6861   24.3433 H   0  0  0  0  0  0  0  0  0  0  0  0
    5.9595   13.8064   24.7641 N   0  0  0  0  0  0  0  0  0  0  0  0
    6.4228   14.4773   25.8372 C   0  0  0  0  0  0  0  0  0  0  0  0
    5.6499   15.0754   26.5606 O   0  0  0  0  0  0  0  0  0  0  0  0
    6.6143   13.2999   24.1512 H   0  0  0  0  0  0  0  0  0  0  0  0
    7.8686   14.4863   26.1343 C   0  0  0  0  0  0  0  0  0  0  0  0
    8.7574   15.1291   25.2689 C   0  0  0  0  0  0  0  0  0  0  0  0
   10.1065   15.1357   25.5472 C   0  0  0  0  0  0  0  0  0  0  0  0
   10.5883   14.5047   26.6865 C   0  0  0  0  0  0  0  0  0  0  0  0
    9.7057   13.8615   27.5552 C   0  0  0  0  0  0  0  0  0  0  0  0
    8.3519   13.8516   27.2813 C   0  0  0  0  0  0  0  0  0  0  0  0
   10.4227   13.3266   28.5868 O   0  0  0  0  0  0  0  0  0  0  0  0
   11.6967   13.9965   28.5563 C   0  0  0  0  0  0  0  0  0  0  0  0
   11.8542   14.3710   27.1752 O   0  0  0  0  0  0  0  0  0  0  0  0
 14 15  1  0  0  0
 15 20  2  0  0  0
 15 16  1  0  0  0
 16 17  2  0  0  0
 17 18  1  0  0  0
 18 19  2  0  0  0
 19 20  1  0  0  0
 19  1  1  0  0  0
 20 21  1  0  0  0
  1 11  1  0  0  0
  1  2  1  0  0  0
  2  3  1  0  0  0
  2  4  2  0  0  0
  3 13  1  0  0  0
  4  9  1  0  0  0
  4  5  1  0  0  0
  5  6  2  0  0  0
  6  7  1  0  0  0
  7  8  2  0  0  0
  7 22  1  0  0  0
  8  9  1  0  0  0
  9 10  2  0  0  0
 10 11  1  0  0  0
 11 12  2  0  0  0
 22 23  2  0  0  0
 22 24  1  0  0  0
 24 26  1  0  0  0
 24 25  1  0  0  0
 26 27  1  0  0  0
 26 29  1  0  0  0
 27 28  2  0  0  0
 27 30  1  0  0  0
 30 35  2  0  0  0
 30 31  1  0  0  0
 31 32  2  0  0  0
 32 33  1  0  0  0
 33 38  1  0  0  0
 33 34  2  0  0  0
 34 35  1  0  0  0
 34 36  1  0  0  0
 36 37  1  0  0  0
 37 38  1  0  0  0
M  END
> <minimizedAffinity>
30.11523

$$$$
ZINC24759702


 38 42  0  0  0  0  0  0  0  0999 V2000
    7.8470   13.9064   24.7671 N   0  0  0  0  0  0  0  0  0  0  0  0
    6.8305   14.7777   24.9626 C   0  0  0  0  0  0  0  0  0  0  0  0
    7.0438   15.9501   25.2104 O   0  0  0  0  0  0  0  0  0  0  0  0
    5.4583   14.2570   24.8640 C   0  0  0  0  0  0  0  0  0  0  0  0
    4.3477   15.0799   25.0500 C   0  0  0  0  0  0  0  0  0  0  0  0
    3.0900   14.5594   24.9436 C   0  0  0  0  0  0  0  0  0  0  0  0
    2.9021   13.2005   24.6609 C   0  0  0  0  0  0  0  0  0  0  0  0
    3.9934   12.3625   24.4727 C   0  0  0  0  0  0  0  0  0  0  0  0
    5.2860   12.8847   24.5728 C   0  0  0  0  0  0  0  0  0  0  0  0
    6.3785   12.1048   24.3965 N   0  0  0  0  0  0  0  0  0  0  0  0
    7.5912   12.5920   24.4895 C   0  0  0  0  0  0  0  0  0  0  0  0
    8.9552   11.5037   24.2449 S   0  0  0  0  0  0  0  0  0  0  0  0
    7.6082   16.2607   24.4586 H   0  0  0  0  0  0  0  0  0  0  0  0
   11.8564   14.7861   27.4752 C   0  0  0  0  0  0  0  0  0  0  0  0
   11.1385   14.7911   26.1501 C   0  0  0  0  0  0  0  0  0  0  0  0
   11.7883   15.2382   25.0141 C   0  0  0  0  0  0  0  0  0  0  0  0
   11.1331   15.2443   23.7966 C   0  0  0  0  0  0  0  0  0  0  0  0
    9.8266   14.8035   23.7115 C   0  0  0  0  0  0  0  0  0  0  0  0
    9.1716   14.3541   24.8502 C   0  0  0  0  0  0  0  0  0  0  0  0
    9.8306   14.3545   26.0726 C   0  0  0  0  0  0  0  0  0  0  0  0
    9.1211   13.8737   27.3122 C   0  0  0  0  0  0  0  0  0  0  0  0
    1.5299   12.6547   24.5559 C   0  0  0  0  0  0  0  0  0  0  0  0
    0.9406   12.6922   23.4938 O   0  0  0  0  0  0  0  0  0  0  0  0
    0.9343   12.1160   25.6384 N   0  0  0  0  0  0  0  0  0  0  0  0
    1.4339   12.0841   26.5387 H   0  0  0  0  0  0  0  0  0  0  0  0
   -0.3642   11.5994   25.5391 N   0  0  0  0  0  0  0  0  0  0  0  0
   -0.9951   11.1461   26.6403 C   0  0  0  0  0  0  0  0  0  0  0  0
   -0.4374   11.1853   27.7201 O   0  0  0  0  0  0  0  0  0  0  0  0
   -0.8366   11.5661   24.6244 H   0  0  0  0  0  0  0  0  0  0  0  0
   -2.3632   10.6018   26.5358 C   0  0  0  0  0  0  0  0  0  0  0  0
   -3.2219   10.6496   27.6368 C   0  0  0  0  0  0  0  0  0  0  0  0
   -4.4980   10.1403   27.5377 C   0  0  0  0  0  0  0  0  0  0  0  0
   -4.9357    9.5781   26.3458 C   0  0  0  0  0  0  0  0  0  0  0  0
   -4.0830    9.5278   25.2423 C   0  0  0  0  0  0  0  0  0  0  0  0
   -2.8024   10.0370   25.3357 C   0  0  0  0  0  0  0  0  0  0  0  0
   -4.7458    8.9338   24.2069 O   0  0  0  0  0  0  0  0  0  0  0  0
   -6.1403    8.9923   24.5601 C   0  0  0  0  0  0  0  0  0  0  0  0
   -6.1286    9.0158   25.9995 O   0  0  0  0  0  0  0  0  0  0  0  0
 14 15  1  0  0  0
 15 20  2  0  0  0
 15 16  1  0  0  0
 16 17  2  0  0  0
 17 18  1  0  0  0
 18 19  2  0  0  0
 19 20  1  0  0  0
 19  1  1  0  0  0
 20 21  1  0  0  0
  1 11  1  0  0  0
  1  2  1  0  0  0
  2  3  1  0  0  0
  2  4  2  0  0  0
  3 13  1  0  0  0
  4  9  1  0  0  0
  4  5  1  0  0  0
  5  6  2  0  0  0
  6  7  1  0  0  0
  7  8  2  0  0  0
  7 22  1  0  0  0
  8  9  1  0  0  0
  9 10  2  0  0  0
 10 11  1  0  0  0
 11 12  2  0  0  0
 22 23  2  0  0  0
 22 24  1  0  0  0
 24 26  1  0  0  0
 24 25  1  0  0  0
 26 27  1  0  0  0
 26 29  1  0  0  0
 27 28  2  0  0  0
 27 30  1  0  0  0
 30 35  2  0  0  0
 30 31  1  0  0  0
 31 32  2  0  0  0
 32 33  1  0  0  0
 33 38  1  0  0  0
 33 34  2  0  0  0
 34 35  1  0  0  0
 34 36  1  0  0  0
 36 37  1  0  0  0
 37 38  1  0  0  0
M  END
> <minimizedAffinity>
32.60052

$$$$
