ZINC17208235
 OpenBabel07192215303D

 36 40  0  0  0  0  0  0  0  0999 V2000
    5.2427    5.5878   22.5311 C   0  0  0  0  0  0  0  0  0  0  0  0
    4.9525    5.9824   23.9563 C   0  0  0  0  0  0  0  0  0  0  0  0
    5.8252    6.4752   24.6386 O   0  0  0  0  0  0  0  0  0  0  0  0
    3.7228    5.7876   24.4724 N   0  0  0  0  0  0  0  0  0  0  0  0
    3.4632    6.1406   25.7470 C   0  0  0  0  0  0  0  0  0  0  0  0
    4.3381    6.6346   26.4310 O   0  0  0  0  0  0  0  0  0  0  0  0
    2.2334    5.9457   26.2630 N   0  0  0  0  0  0  0  0  0  0  0  0
    2.9814    5.3690   23.8928 H   0  0  0  0  0  0  0  0  0  0  0  0
    1.5158    5.4533   25.7122 H   0  0  0  0  0  0  0  0  0  0  0  0
    1.9312    6.4131   27.5490 C   0  0  0  0  0  0  0  0  0  0  0  0
    1.1241    7.5312   27.7098 C   0  0  0  0  0  0  0  0  0  0  0  0
    0.8267    7.9928   28.9773 C   0  0  0  0  0  0  0  0  0  0  0  0
    1.3324    7.3416   30.0926 C   0  0  0  0  0  0  0  0  0  0  0  0
    2.1386    6.2203   29.9349 C   0  0  0  0  0  0  0  0  0  0  0  0
    2.4381    5.7583   28.6624 C   0  0  0  0  0  0  0  0  0  0  0  0
    2.6370    5.5629   31.0175 O   0  0  0  0  0  0  0  0  0  0  0  0
    2.6248    6.2702   32.2623 C   0  0  0  0  0  0  0  0  0  0  0  0
    1.2452    6.9206   32.4320 C   0  0  0  0  0  0  0  0  0  0  0  0
    1.0349    7.8161   31.3342 O   0  0  0  0  0  0  0  0  0  0  0  0
    4.2796    6.6308   21.4083 S   0  0  0  0  0  0  0  0  0  0  0  0
    4.9472   15.9093   25.7186 C   0  0  0  0  0  0  0  0  0  0  0  0
    5.0329   14.4241   25.3613 C   0  0  2  0  0  0  0  0  0  0  0  0
    6.1683   14.1981   24.3586 C   0  0  0  0  0  0  0  0  0  0  0  0
    6.4209   12.6996   24.1888 C   0  0  0  0  0  0  0  0  0  0  0  0
    5.0999   12.0117   23.8553 C   0  0  0  0  0  0  0  0  0  0  0  0
    3.9235   12.6191   24.1103 C   0  0  0  0  0  0  0  0  0  0  0  0
    2.6857   11.4713   23.5695 S   0  0  0  0  0  0  0  0  0  0  0  0
    3.7556   10.1740   23.0009 C   0  0  0  0  0  0  0  0  0  0  0  0
    5.0426   10.6793   23.2509 C   0  0  0  0  0  0  0  0  0  0  0  0
    6.1298    9.8250   22.8825 C   0  0  0  0  0  0  0  0  0  0  0  0
    7.2823   10.1795   23.0613 O   0  0  0  0  0  0  0  0  0  0  0  0
    5.8622    8.6248   22.3354 N   0  0  0  0  0  0  0  0  0  0  0  0
    4.5782    8.2114   22.1274 C   0  0  0  0  0  0  0  0  0  0  0  0
    3.5590    8.9810   22.4523 N   0  0  0  0  0  0  0  0  0  0  0  0
    3.7132   13.9715   24.7203 C   0  0  0  0  0  0  0  0  0  0  0  0
    6.6414    8.0064   22.0686 H   0  0  0  0  0  0  0  0  0  0  0  0
  1  2  1  0  0  0  0
  2  3  2  0  0  0  0
  2  4  1  0  0  0  0
  4  5  1  0  0  0  0
  4  8  1  0  0  0  0
  5  6  2  0  0  0  0
  5  7  1  0  0  0  0
  7 10  1  0  0  0  0
  7  9  1  0  0  0  0
 10 15  2  0  0  0  0
 10 11  1  0  0  0  0
 11 12  2  0  0  0  0
 12 13  1  0  0  0  0
 13 19  1  0  0  0  0
 13 14  2  0  0  0  0
 14 15  1  0  0  0  0
 14 16  1  0  0  0  0
 16 17  1  0  0  0  0
 17 18  1  0  0  0  0
 18 19  1  0  0  0  0
 20  1  1  0  0  0  0
 22 21  1  6  0  0  0
 22 35  1  0  0  0  0
 22 23  1  0  0  0  0
 23 24  1  0  0  0  0
 24 25  1  0  0  0  0
 25 29  1  0  0  0  0
 25 26  2  0  0  0  0
 26 27  1  0  0  0  0
 26 35  1  0  0  0  0
 27 28  1  0  0  0  0
 28 34  1  0  0  0  0
 28 29  2  0  0  0  0
 29 30  1  0  0  0  0
 30 31  2  0  0  0  0
 30 32  1  0  0  0  0
 32 33  1  0  0  0  0
 32 36  1  0  0  0  0
 33 34  2  0  0  0  0
 33 20  1  0  0  0  0
M  END
>  <minimizedAffinity>
-8.35799

$$$$
