BDB50180302


 32 35  0  0  0  0  0  0  0  0999 V2000
    6.9614   15.4739   25.1212 N   0  0  0  0  0  0  0  0  0  0  0  0
    7.9671   14.7606   24.5979 C   0  0  0  0  0  0  0  0  0  0  0  0
    7.7828   13.5664   24.0303 N   0  0  0  0  0  0  0  0  0  0  0  0
    5.7074   15.0263   25.1041 C   0  0  0  0  0  0  0  0  0  0  0  0
    5.4966   13.7927   24.5210 C   0  0  0  0  0  0  0  0  0  0  0  0
    6.5487   13.0946   23.9977 C   0  0  0  0  0  0  0  0  0  0  0  0
    6.0659   11.9676   23.5130 N   0  0  0  0  0  0  0  0  0  0  0  0
    4.7519   11.9742   23.7332 C   0  0  0  0  0  0  0  0  0  0  0  0
    4.3781   13.0968   24.3572 N   0  0  0  0  0  0  0  0  0  0  0  0
    4.6335   15.7848   25.6613 N   0  0  0  0  0  0  0  0  0  0  0  0
    3.6800   15.3969   25.6244 H   0  0  0  0  0  0  0  0  0  0  0  0
    4.8056   16.7039   26.0932 H   0  0  0  0  0  0  0  0  0  0  0  0
    3.6438   10.6673   23.2617 S   0  0  0  0  0  0  0  0  0  0  0  0
    2.4593   10.2554   24.5319 C   0  0  0  0  0  0  0  0  0  0  0  0
    1.2545   10.9582   24.5799 C   0  0  0  0  0  0  0  0  0  0  0  0
    0.3023   10.6694   25.5540 C   0  0  0  0  0  0  0  0  0  0  0  0
    2.7295    9.2514   25.4592 C   0  0  0  0  0  0  0  0  0  0  0  0
    1.7706    8.9766   26.4224 C   0  0  0  0  0  0  0  0  0  0  0  0
    0.5884    9.6673   26.4684 C   0  0  0  0  0  0  0  0  0  0  0  0
   -0.2230    9.2554   27.4821 O   0  0  0  0  0  0  0  0  0  0  0  0
    0.5759    8.1780   28.1280 C   0  0  0  0  0  0  0  0  0  0  0  0
    1.8673    8.0338   27.4012 O   0  0  0  0  0  0  0  0  0  0  0  0
    0.8857   12.4339   23.1972 I   0  0  0  0  0  0  0  0  0  0  0  0
    6.8148   10.9264   22.8678 C   0  0  0  0  0  0  0  0  0  0  0  0
    7.6831   10.1651   23.8914 C   0  0  0  0  0  0  0  0  0  0  0  0
    7.8217    8.6978   23.4456 C   0  0  0  0  0  0  0  0  0  0  0  0
    6.5695    8.2483   22.8185 N   0  0  0  0  0  0  0  0  0  0  0  0
    6.7859    7.6581   22.0025 H   0  0  0  0  0  0  0  0  0  0  0  0
    6.0251    9.0678   22.5136 H   0  0  0  0  0  0  0  0  0  0  0  0
    5.7820    7.4708   23.7901 C   0  0  0  0  0  0  0  0  0  0  0  0
    4.5880    6.8119   23.0756 C   0  0  0  0  0  0  0  0  0  0  0  0
    6.6663    6.3791   24.4244 C   0  0  0  0  0  0  0  0  0  0  0  0
  1  2  2  0  0  0
  2  3  1  0  0  0
  3  6  2  0  0  0
  4  1  1  0  0  0
  4 10  1  0  0  0
  5  4  2  0  0  0
  5  6  1  0  0  0
  6  7  1  0  0  0
  7  8  1  0  0  0
  7 24  1  0  0  0
  8  9  2  0  0  0
  8 13  1  0  0  0
  9  5  1  0  0  0
 10 11  1  0  0  0
 10 12  1  0  0  0
 13 14  1  0  0  0
 24 25  1  0  0  0
 25 26  1  0  0  0
 26 27  1  0  0  0
 27 30  1  0  0  0
 27 28  1  0  0  0
 27 29  1  0  0  0
 30 31  1  0  0  0
 30 32  1  0  0  0
 14 15  2  0  0  0
 15 16  1  0  0  0
 15 23  1  0  0  0
 16 19  2  0  0  0
 17 14  1  0  0  0
 18 17  2  0  0  0
 18 19  1  0  0  0
 19 20  1  0  0  0
 20 21  1  0  0  0
 21 22  1  0  0  0
 22 18  1  0  0  0
M  CHG 1  27   1
M  END
> <minimizedAffinity>
-9.12120

$$$$
BDB50180302


 32 35  0  0  0  0  0  0  0  0999 V2000
    6.8809   15.6054   25.0300 N   0  0  0  0  0  0  0  0  0  0  0  0
    7.9295   14.9820   24.4769 C   0  0  0  0  0  0  0  0  0  0  0  0
    7.8402   13.7633   23.9393 N   0  0  0  0  0  0  0  0  0  0  0  0
    5.6773   15.0375   25.0751 C   0  0  0  0  0  0  0  0  0  0  0  0
    5.5650   13.7766   24.5240 C   0  0  0  0  0  0  0  0  0  0  0  0
    6.6581   13.1728   23.9685 C   0  0  0  0  0  0  0  0  0  0  0  0
    6.2689   11.9937   23.5255 N   0  0  0  0  0  0  0  0  0  0  0  0
    4.9708   11.8772   23.8019 C   0  0  0  0  0  0  0  0  0  0  0  0
    4.5145   12.9716   24.4211 N   0  0  0  0  0  0  0  0  0  0  0  0
    4.5579   15.7000   25.6642 N   0  0  0  0  0  0  0  0  0  0  0  0
    3.6464   15.2203   25.6755 H   0  0  0  0  0  0  0  0  0  0  0  0
    4.6565   16.6408   26.0717 H   0  0  0  0  0  0  0  0  0  0  0  0
    3.9780   10.4585   23.4023 S   0  0  0  0  0  0  0  0  0  0  0  0
    2.2308   10.7297   23.6469 C   0  0  0  0  0  0  0  0  0  0  0  0
    1.5363    9.8890   24.5180 C   0  0  0  0  0  0  0  0  0  0  0  0
    0.1727   10.0649   24.7381 C   0  0  0  0  0  0  0  0  0  0  0  0
    1.5701   11.7605   22.9823 C   0  0  0  0  0  0  0  0  0  0  0  0
    0.2123   11.9216   23.2129 C   0  0  0  0  0  0  0  0  0  0  0  0
   -0.4683   11.0957   24.0682 C   0  0  0  0  0  0  0  0  0  0  0  0
   -1.7901   11.4105   24.1639 O   0  0  0  0  0  0  0  0  0  0  0  0
   -1.9195   12.5764   23.2473 C   0  0  0  0  0  0  0  0  0  0  0  0
   -0.5872   12.8713   22.6514 O   0  0  0  0  0  0  0  0  0  0  0  0
    2.5399    8.3772   25.4836 I   0  0  0  0  0  0  0  0  0  0  0  0
    7.0893   11.0164   22.8675 C   0  0  0  0  0  0  0  0  0  0  0  0
    7.9337   10.2330   23.8946 C   0  0  0  0  0  0  0  0  0  0  0  0
    8.0014    8.7541   23.4714 C   0  0  0  0  0  0  0  0  0  0  0  0
    8.1244    7.9011   24.6631 N   0  0  0  0  0  0  0  0  0  0  0  0
    7.8597    8.4394   25.5004 H   0  0  0  0  0  0  0  0  0  0  0  0
    9.0987    7.5802   24.7562 H   0  0  0  0  0  0  0  0  0  0  0  0
    7.2352    6.7348   24.5295 C   0  0  0  0  0  0  0  0  0  0  0  0
    6.7467    6.2973   25.9225 C   0  0  0  0  0  0  0  0  0  0  0  0
    6.0218    7.1013   23.6522 C   0  0  0  0  0  0  0  0  0  0  0  0
  1  2  2  0  0  0
  2  3  1  0  0  0
  3  6  2  0  0  0
  4  1  1  0  0  0
  4 10  1  0  0  0
  5  4  2  0  0  0
  5  6  1  0  0  0
  6  7  1  0  0  0
  7  8  1  0  0  0
  7 24  1  0  0  0
  8  9  2  0  0  0
  8 13  1  0  0  0
  9  5  1  0  0  0
 10 11  1  0  0  0
 10 12  1  0  0  0
 13 14  1  0  0  0
 24 25  1  0  0  0
 25 26  1  0  0  0
 26 27  1  0  0  0
 27 30  1  0  0  0
 27 28  1  0  0  0
 27 29  1  0  0  0
 30 31  1  0  0  0
 30 32  1  0  0  0
 14 15  2  0  0  0
 15 16  1  0  0  0
 15 23  1  0  0  0
 16 19  2  0  0  0
 17 14  1  0  0  0
 18 17  2  0  0  0
 18 19  1  0  0  0
 19 20  1  0  0  0
 20 21  1  0  0  0
 21 22  1  0  0  0
 22 18  1  0  0  0
M  CHG 1  27   1
M  END
> <minimizedAffinity>
-8.96125

$$$$
BDB50180302


 32 35  0  0  0  0  0  0  0  0999 V2000
    6.4455   15.3597   24.8784 N   0  0  0  0  0  0  0  0  0  0  0  0
    7.3124   14.4994   24.3285 C   0  0  0  0  0  0  0  0  0  0  0  0
    6.9601   13.2706   23.9435 N   0  0  0  0  0  0  0  0  0  0  0  0
    5.1694   15.0333   25.0740 C   0  0  0  0  0  0  0  0  0  0  0  0
    4.7858   13.7663   24.6821 C   0  0  0  0  0  0  0  0  0  0  0  0
    5.6997   12.9166   24.1244 C   0  0  0  0  0  0  0  0  0  0  0  0
    5.0690   11.7919   23.8497 N   0  0  0  0  0  0  0  0  0  0  0  0
    3.8013   11.9476   24.2288 C   0  0  0  0  0  0  0  0  0  0  0  0
    3.6043   13.1647   24.7477 N   0  0  0  0  0  0  0  0  0  0  0  0
    4.2433   15.9487   25.6601 N   0  0  0  0  0  0  0  0  0  0  0  0
    3.2661   15.6507   25.7913 H   0  0  0  0  0  0  0  0  0  0  0  0
    4.5436   16.8910   25.9478 H   0  0  0  0  0  0  0  0  0  0  0  0
    2.5407   10.7055   24.0675 S   0  0  0  0  0  0  0  0  0  0  0  0
    0.9508   11.3713   23.6037 C   0  0  0  0  0  0  0  0  0  0  0  0
   -0.1512   11.1076   24.4185 C   0  0  0  0  0  0  0  0  0  0  0  0
   -1.4098   11.6074   24.0941 C   0  0  0  0  0  0  0  0  0  0  0  0
    0.8096   12.1402   22.4505 C   0  0  0  0  0  0  0  0  0  0  0  0
   -0.4505   12.6300   22.1423 C   0  0  0  0  0  0  0  0  0  0  0  0
   -1.5315   12.3705   22.9430 C   0  0  0  0  0  0  0  0  0  0  0  0
   -2.6799   12.9353   22.4766 O   0  0  0  0  0  0  0  0  0  0  0  0
   -2.2298   13.6228   21.2353 C   0  0  0  0  0  0  0  0  0  0  0  0
   -0.7689   13.3946   21.0605 O   0  0  0  0  0  0  0  0  0  0  0  0
    0.0900    9.9698   26.1133 I   0  0  0  0  0  0  0  0  0  0  0  0
    5.6400   10.6176   23.2531 C   0  0  0  0  0  0  0  0  0  0  0  0
    7.1217   10.8547   22.8927 C   0  0  0  0  0  0  0  0  0  0  0  0
    7.9775    9.7298   23.5036 C   0  0  0  0  0  0  0  0  0  0  0  0
    7.1604    8.9302   24.4290 N   0  0  0  0  0  0  0  0  0  0  0  0
    6.2149    8.8112   24.0382 H   0  0  0  0  0  0  0  0  0  0  0  0
    7.0977    9.4134   25.3364 H   0  0  0  0  0  0  0  0  0  0  0  0
    7.7812    7.6085   24.6197 C   0  0  0  0  0  0  0  0  0  0  0  0
    6.6845    6.5528   24.8502 C   0  0  0  0  0  0  0  0  0  0  0  0
    8.6013    7.2316   23.3701 C   0  0  0  0  0  0  0  0  0  0  0  0
  1  2  2  0  0  0
  2  3  1  0  0  0
  3  6  2  0  0  0
  4  1  1  0  0  0
  4 10  1  0  0  0
  5  4  2  0  0  0
  5  6  1  0  0  0
  6  7  1  0  0  0
  7  8  1  0  0  0
  7 24  1  0  0  0
  8  9  2  0  0  0
  8 13  1  0  0  0
  9  5  1  0  0  0
 10 11  1  0  0  0
 10 12  1  0  0  0
 13 14  1  0  0  0
 24 25  1  0  0  0
 25 26  1  0  0  0
 26 27  1  0  0  0
 27 30  1  0  0  0
 27 28  1  0  0  0
 27 29  1  0  0  0
 30 31  1  0  0  0
 30 32  1  0  0  0
 14 15  2  0  0  0
 15 16  1  0  0  0
 15 23  1  0  0  0
 16 19  2  0  0  0
 17 14  1  0  0  0
 18 17  2  0  0  0
 18 19  1  0  0  0
 19 20  1  0  0  0
 20 21  1  0  0  0
 21 22  1  0  0  0
 22 18  1  0  0  0
M  CHG 1  27   1
M  END
> <minimizedAffinity>
-8.56905

$$$$
