BDB20885


 39 41  0  0  0  0  0  0  0  0999 V2000
    4.2682   13.8702   24.5772 C   0  0  0  0  0  0  0  0  0  0  0  0
    5.6340   13.5513   24.4036 C   0  0  0  0  0  0  0  0  0  0  0  0
    6.2955   14.7096   24.8189 C   0  0  0  0  0  0  0  0  0  0  0  0
    5.3683   15.5852   25.1791 N   0  0  0  0  0  0  0  0  0  0  0  0
    4.1989   15.1118   25.0516 N   0  0  0  0  0  0  0  0  0  0  0  0
    5.5652   16.4984   25.5210 H   0  0  0  0  0  0  0  0  0  0  0  0
    1.8264   10.8953   24.2506 C   0  0  0  0  0  0  0  0  0  0  0  0
    0.6165   11.5280   24.0216 C   0  0  0  0  0  0  0  0  0  0  0  0
    0.5917   12.9162   23.9266 C   0  0  0  0  0  0  0  0  0  0  0  0
    1.7544   13.6712   24.0827 C   0  0  0  0  0  0  0  0  0  0  0  0
    2.9738   13.0434   24.3430 C   0  0  0  0  0  0  0  0  0  0  0  0
    2.9641   11.6635   24.3996 C   0  0  0  0  0  0  0  0  0  0  0  0
   -0.5558   10.7835   23.8936 O   0  0  0  0  0  0  0  0  0  0  0  0
    1.6760   15.0511   23.9772 O   0  0  0  0  0  0  0  0  0  0  0  0
    1.9524    9.1788   24.3859 Cl  0  0  0  0  0  0  0  0  0  0  0  0
   -0.3569    9.8191   23.9969 H   0  0  0  0  0  0  0  0  0  0  0  0
    0.7359   15.3085   23.7906 H   0  0  0  0  0  0  0  0  0  0  0  0
    6.3050   12.2233   23.8937 C   0  0  0  0  0  0  0  0  0  0  0  0
    7.5709    9.8580   23.0172 C   0  0  0  0  0  0  0  0  0  0  0  0
    8.2603   10.7829   23.7742 C   0  0  0  0  0  0  0  0  0  0  0  0
    7.6223   11.9336   24.1877 C   0  0  0  0  0  0  0  0  0  0  0  0
    5.6290   11.2790   23.1271 C   0  0  0  0  0  0  0  0  0  0  0  0
    6.2455   10.1091   22.6875 C   0  0  0  0  0  0  0  0  0  0  0  0
    8.2758    8.6176   22.5830 C   0  0  0  0  0  0  0  0  0  0  0  0
    7.5388    7.4514   23.1258 N   0  0  0  0  0  0  0  0  0  0  0  0
    6.5249    7.5692   22.9689 H   0  0  0  0  0  0  0  0  0  0  0  0
    7.8627    6.5855   22.6643 H   0  0  0  0  0  0  0  0  0  0  0  0
    7.7809    7.3483   24.5518 C   0  0  0  0  0  0  0  0  0  0  0  0
    6.8495    6.2848   25.1427 C   0  0  0  0  0  0  0  0  0  0  0  0
    4.0400    5.4416   25.1611 C   0  0  0  0  0  0  0  0  0  0  0  0
    5.3001    6.3489   24.2338 S   0  0  0  0  0  0  0  0  0  0  0  0
    5.4801    5.7240   22.8637 O   0  0  0  0  0  0  0  0  0  0  0  0
    4.8758    7.7974   24.0845 O   0  0  0  0  0  0  0  0  0  0  0  0
    7.7694   15.0138   24.8990 C   0  0  0  0  0  0  0  0  0  0  0  0
    8.4730   15.1509   23.9027 O   0  0  0  0  0  0  0  0  0  0  0  0
    8.4008   15.1356   26.1286 N   0  0  0  0  0  0  0  0  0  0  0  0
    7.8938   15.0282   26.9741 H   0  0  0  0  0  0  0  0  0  0  0  0
    9.8112   15.4168   26.1512 C   0  0  0  0  0  0  0  0  0  0  0  0
   10.6030   14.1436   26.4792 C   0  0  0  0  0  0  0  0  0  0  0  0
  7  8  2  0  0  0
  7 12  1  0  0  0
  7 15  1  0  0  0
  8  9  1  0  0  0
  8 13  1  0  0  0
  9 10  2  0  0  0
 10 11  1  0  0  0
 10 14  1  0  0  0
 11 12  2  0  0  0
 11  1  1  0  0  0
 13 16  1  0  0  0
 14 17  1  0  0  0
  1  5  2  0  0  0
  2  1  1  0  0  0
  2  3  2  0  0  0
  2 18  1  0  0  0
  3 34  1  0  0  0
  4  3  1  0  0  0
  4  6  1  0  0  0
  5  4  1  0  0  0
 18 22  1  0  0  0
 19 20  2  0  0  0
 19 23  1  0  0  0
 19 24  1  0  0  0
 20 21  1  0  0  0
 21 18  2  0  0  0
 22 23  2  0  0  0
 24 25  1  0  0  0
 25 28  1  0  0  0
 25 26  1  0  0  0
 25 27  1  0  0  0
 28 29  1  0  0  0
 34 35  2  0  0  0
 34 36  1  0  0  0
 36 38  1  0  0  0
 36 37  1  0  0  0
 38 39  1  0  0  0
 29 31  1  0  0  0
 31 30  1  0  0  0
 31 32  2  0  0  0
 31 33  2  0  0  0
M  CHG 1  25   1
M  END
> <minimizedAffinity>
-10.07000

$$$$
BDB20885


 39 41  0  0  0  0  0  0  0  0999 V2000
    6.7030   11.1436   22.8515 C   0  0  0  0  0  0  0  0  0  0  0  0
    5.4943   10.4453   22.6311 C   0  0  0  0  0  0  0  0  0  0  0  0
    5.8320    9.5082   21.6517 C   0  0  0  0  0  0  0  0  0  0  0  0
    7.1121    9.6876   21.3594 N   0  0  0  0  0  0  0  0  0  0  0  0
    7.6259   10.6203   22.0478 N   0  0  0  0  0  0  0  0  0  0  0  0
    7.6133    9.1478   20.6908 H   0  0  0  0  0  0  0  0  0  0  0  0
    6.4930   14.3896   24.9344 C   0  0  0  0  0  0  0  0  0  0  0  0
    7.6695   14.3515   25.6630 C   0  0  0  0  0  0  0  0  0  0  0  0
    8.5569   13.3005   25.4516 C   0  0  0  0  0  0  0  0  0  0  0  0
    8.2669   12.2828   24.5426 C   0  0  0  0  0  0  0  0  0  0  0  0
    7.0697   12.2977   23.8250 C   0  0  0  0  0  0  0  0  0  0  0  0
    6.2288   13.3722   24.0390 C   0  0  0  0  0  0  0  0  0  0  0  0
    7.9545   15.3487   26.5954 O   0  0  0  0  0  0  0  0  0  0  0  0
    9.1853   11.2594   24.3677 O   0  0  0  0  0  0  0  0  0  0  0  0
    5.3324   15.6524   25.1321 Cl  0  0  0  0  0  0  0  0  0  0  0  0
    7.2155   16.0072   26.6228 H   0  0  0  0  0  0  0  0  0  0  0  0
    9.9666   11.4213   24.9578 H   0  0  0  0  0  0  0  0  0  0  0  0
    4.0869   10.6212   23.3110 C   0  0  0  0  0  0  0  0  0  0  0  0
    1.5705   10.8704   24.5644 C   0  0  0  0  0  0  0  0  0  0  0  0
    2.3110    9.7144   24.7025 C   0  0  0  0  0  0  0  0  0  0  0  0
    3.5362    9.6136   24.0772 C   0  0  0  0  0  0  0  0  0  0  0  0
    3.3227   11.7771   23.1823 C   0  0  0  0  0  0  0  0  0  0  0  0
    2.0782   11.9092   23.7953 C   0  0  0  0  0  0  0  0  0  0  0  0
    0.2501   10.9629   25.2514 C   0  0  0  0  0  0  0  0  0  0  0  0
    0.0489    9.7226   26.0380 N   0  0  0  0  0  0  0  0  0  0  0  0
   -0.6266    9.1054   25.5593 H   0  0  0  0  0  0  0  0  0  0  0  0
    0.9495    9.2287   26.1514 H   0  0  0  0  0  0  0  0  0  0  0  0
   -0.4751   10.0606   27.3471 C   0  0  0  0  0  0  0  0  0  0  0  0
   -0.5019    8.7997   28.2173 C   0  0  0  0  0  0  0  0  0  0  0  0
    1.1969    6.5811   29.1096 C   0  0  0  0  0  0  0  0  0  0  0  0
    0.9639    7.8352   27.8275 S   0  0  0  0  0  0  0  0  0  0  0  0
    2.1776    8.7428   27.7691 O   0  0  0  0  0  0  0  0  0  0  0  0
    0.7657    7.1578   26.4850 O   0  0  0  0  0  0  0  0  0  0  0  0
    4.9937    8.4434   20.9923 C   0  0  0  0  0  0  0  0  0  0  0  0
    4.4800    8.5937   19.8878 O   0  0  0  0  0  0  0  0  0  0  0  0
    4.7535    7.2354   21.6314 N   0  0  0  0  0  0  0  0  0  0  0  0
    5.1311    7.0508   22.5297 H   0  0  0  0  0  0  0  0  0  0  0  0
    3.9389    6.2557   20.9641 C   0  0  0  0  0  0  0  0  0  0  0  0
    2.9376    5.6358   21.9483 C   0  0  0  0  0  0  0  0  0  0  0  0
  7  8  2  0  0  0
  7 12  1  0  0  0
  7 15  1  0  0  0
  8  9  1  0  0  0
  8 13  1  0  0  0
  9 10  2  0  0  0
 10 11  1  0  0  0
 10 14  1  0  0  0
 11 12  2  0  0  0
 11  1  1  0  0  0
 13 16  1  0  0  0
 14 17  1  0  0  0
  1  5  2  0  0  0
  2  1  1  0  0  0
  2  3  2  0  0  0
  2 18  1  0  0  0
  3 34  1  0  0  0
  4  3  1  0  0  0
  4  6  1  0  0  0
  5  4  1  0  0  0
 18 22  1  0  0  0
 19 20  2  0  0  0
 19 23  1  0  0  0
 19 24  1  0  0  0
 20 21  1  0  0  0
 21 18  2  0  0  0
 22 23  2  0  0  0
 24 25  1  0  0  0
 25 28  1  0  0  0
 25 26  1  0  0  0
 25 27  1  0  0  0
 28 29  1  0  0  0
 34 35  2  0  0  0
 34 36  1  0  0  0
 36 38  1  0  0  0
 36 37  1  0  0  0
 38 39  1  0  0  0
 29 31  1  0  0  0
 31 30  1  0  0  0
 31 32  2  0  0  0
 31 33  2  0  0  0
M  CHG 1  25   1
M  END
> <minimizedAffinity>
-10.02487

$$$$
BDB20885


 39 41  0  0  0  0  0  0  0  0999 V2000
    3.5197   13.7568   24.3862 C   0  0  0  0  0  0  0  0  0  0  0  0
    2.6640   12.6883   24.0351 C   0  0  0  0  0  0  0  0  0  0  0  0
    1.4017   13.2844   23.9818 C   0  0  0  0  0  0  0  0  0  0  0  0
    1.5574   14.5648   24.2860 N   0  0  0  0  0  0  0  0  0  0  0  0
    2.7717   14.8503   24.5134 N   0  0  0  0  0  0  0  0  0  0  0  0
    0.8144   15.2255   24.3189 H   0  0  0  0  0  0  0  0  0  0  0  0
    7.2715   12.8395   24.3344 C   0  0  0  0  0  0  0  0  0  0  0  0
    7.8620   13.9748   24.8628 C   0  0  0  0  0  0  0  0  0  0  0  0
    7.0477   15.0235   25.2799 C   0  0  0  0  0  0  0  0  0  0  0  0
    5.6604   14.9556   25.1504 C   0  0  0  0  0  0  0  0  0  0  0  0
    5.0582   13.8268   24.5919 C   0  0  0  0  0  0  0  0  0  0  0  0
    5.8963   12.7947   24.2181 C   0  0  0  0  0  0  0  0  0  0  0  0
    9.2496   14.0638   24.9690 O   0  0  0  0  0  0  0  0  0  0  0  0
    4.8942   16.0267   25.5829 O   0  0  0  0  0  0  0  0  0  0  0  0
    8.2016   11.4914   23.7887 Cl  0  0  0  0  0  0  0  0  0  0  0  0
    9.6693   13.2380   24.6191 H   0  0  0  0  0  0  0  0  0  0  0  0
    5.4946   16.7278   25.9473 H   0  0  0  0  0  0  0  0  0  0  0  0
    2.9987   11.1801   23.7404 C   0  0  0  0  0  0  0  0  0  0  0  0
    3.5507    8.4534   23.2645 C   0  0  0  0  0  0  0  0  0  0  0  0
    2.7057    8.8293   24.2885 C   0  0  0  0  0  0  0  0  0  0  0  0
    2.4541   10.1680   24.5050 C   0  0  0  0  0  0  0  0  0  0  0  0
    3.8500   10.7795   22.7149 C   0  0  0  0  0  0  0  0  0  0  0  0
    4.1307    9.4361   22.4732 C   0  0  0  0  0  0  0  0  0  0  0  0
    3.8073    7.0012   23.0426 C   0  0  0  0  0  0  0  0  0  0  0  0
    5.1907    6.8475   22.5328 N   0  0  0  0  0  0  0  0  0  0  0  0
    5.1810    6.7581   21.5040 H   0  0  0  0  0  0  0  0  0  0  0  0
    5.7581    7.6674   22.8040 H   0  0  0  0  0  0  0  0  0  0  0  0
    5.7840    5.6516   23.0989 C   0  0  0  0  0  0  0  0  0  0  0  0
    6.1572    5.9208   24.5604 C   0  0  0  0  0  0  0  0  0  0  0  0
    8.6090    6.8865   23.2716 C   0  0  0  0  0  0  0  0  0  0  0  0
    7.4017    7.2176   24.5769 S   0  0  0  0  0  0  0  0  0  0  0  0
    8.0967    7.2480   25.9246 O   0  0  0  0  0  0  0  0  0  0  0  0
    6.7274    8.5513   24.3181 O   0  0  0  0  0  0  0  0  0  0  0  0
    0.0582   12.6917   23.6426 C   0  0  0  0  0  0  0  0  0  0  0  0
   -0.5807   12.0026   24.4323 O   0  0  0  0  0  0  0  0  0  0  0  0
   -0.5090   12.8940   22.3926 N   0  0  0  0  0  0  0  0  0  0  0  0
   -0.0430   13.4336   21.7033 H   0  0  0  0  0  0  0  0  0  0  0  0
   -1.7886   12.2987   22.1148 C   0  0  0  0  0  0  0  0  0  0  0  0
   -2.7989   13.3768   21.6995 C   0  0  0  0  0  0  0  0  0  0  0  0
  7  8  2  0  0  0
  7 12  1  0  0  0
  7 15  1  0  0  0
  8  9  1  0  0  0
  8 13  1  0  0  0
  9 10  2  0  0  0
 10 11  1  0  0  0
 10 14  1  0  0  0
 11 12  2  0  0  0
 11  1  1  0  0  0
 13 16  1  0  0  0
 14 17  1  0  0  0
  1  5  2  0  0  0
  2  1  1  0  0  0
  2  3  2  0  0  0
  2 18  1  0  0  0
  3 34  1  0  0  0
  4  3  1  0  0  0
  4  6  1  0  0  0
  5  4  1  0  0  0
 18 22  1  0  0  0
 19 20  2  0  0  0
 19 23  1  0  0  0
 19 24  1  0  0  0
 20 21  1  0  0  0
 21 18  2  0  0  0
 22 23  2  0  0  0
 24 25  1  0  0  0
 25 28  1  0  0  0
 25 26  1  0  0  0
 25 27  1  0  0  0
 28 29  1  0  0  0
 34 35  2  0  0  0
 34 36  1  0  0  0
 36 38  1  0  0  0
 36 37  1  0  0  0
 38 39  1  0  0  0
 29 31  1  0  0  0
 31 30  1  0  0  0
 31 32  2  0  0  0
 31 33  2  0  0  0
M  CHG 1  25   1
M  END
> <minimizedAffinity>
-9.38078

$$$$
