ZINC05923011
 OpenBabel07192215303D

 38 42  0  0  0  0  0  0  0  0999 V2000
    7.5363   11.8350   22.7082 C   0  0  0  0  0  0  0  0  0  0  0  0
    7.1204   10.3782   22.4950 C   0  0  0  0  0  0  0  0  0  0  0  0
    6.3444   10.2556   21.1817 C   0  0  0  0  0  0  0  0  0  0  0  0
    5.9386    8.7962   20.9682 C   0  0  0  0  0  0  0  0  0  0  0  0
    5.0639    8.3129   22.1249 C   0  0  2  0  0  0  0  0  0  0  0  0
    3.7775    9.1367   22.1675 C   0  0  0  0  0  0  0  0  0  0  0  0
    2.8494    8.5901   23.2551 C   0  0  0  0  0  0  0  0  0  0  0  0
    3.5306    8.7281   24.6194 C   0  0  2  0  0  0  0  0  0  0  0  0
    4.8759    8.0701   24.5738 C   0  0  0  0  0  0  0  0  0  0  0  0
    5.2780    7.1802   25.4316 C   0  0  0  0  0  0  0  0  0  0  0  0
    4.4204    6.7000   26.5646 C   0  0  0  0  0  0  0  0  0  0  0  0
    3.4227    7.7990   26.9530 C   0  0  1  0  0  0  0  0  0  0  0  0
    2.6150    8.1819   25.7031 C   0  0  1  0  0  0  0  0  0  0  0  0
    1.6069    9.2738   26.0853 C   0  0  0  0  0  0  0  0  0  0  0  0
    0.7511    8.7958   27.2196 C   0  0  0  0  0  0  0  0  0  0  0  0
    1.1486    7.9060   28.0800 C   0  0  0  0  0  0  0  0  0  0  0  0
    2.5135    7.2632   28.0470 C   0  0  2  0  0  0  0  0  0  0  0  0
    3.1661    7.3519   29.3992 C   0  0  0  0  0  0  0  0  0  0  0  0
    2.2300    6.7934   30.4729 C   0  0  1  0  0  0  0  0  0  0  0  0
    0.9509    7.6300   30.5300 C   0  0  1  0  0  0  0  0  0  0  0  0
    0.2009    7.5094   29.1998 C   0  0  2  0  0  0  0  0  0  0  0  0
   -0.2609    6.0649   28.9973 C   0  0  0  0  0  0  0  0  0  0  0  0
    0.1188    7.1559   31.5905 O   0  0  0  0  0  0  0  0  0  0  0  0
    1.8986    5.4397   30.1570 O   0  0  0  0  0  0  0  0  0  0  0  0
    2.2751    5.7761   27.7777 C   0  0  0  0  0  0  0  0  0  0  0  0
    1.8649    6.9600   25.1688 C   0  0  0  0  0  0  0  0  0  0  0  0
    5.8185    8.4673   23.4479 C   0  0  2  0  0  0  0  0  0  0  0  0
    6.2298    9.9268   23.6538 C   0  0  0  0  0  0  0  0  0  0  0  0
    3.7438   10.2189   24.8892 C   0  0  0  0  0  0  0  0  0  0  0  0
    8.3681    9.4945   22.4358 C   0  0  0  0  0  0  0  0  0  0  0  0
    0.6022    7.2343   32.4509 H   0  0  0  0  0  0  0  0  0  0  0  0
    2.7248    4.8952   30.1248 H   0  0  0  0  0  0  0  0  0  0  0  0
   -1.0111    8.4432   29.2046 C   0  0  0  0  0  0  0  0  0  0  0  0
   -0.5948    9.7657   28.8583 O   0  0  0  0  0  0  0  0  0  0  0  0
   -0.1879    9.7589   27.9558 H   0  0  0  0  0  0  0  0  0  0  0  0
    4.7020    6.8637   21.9250 C   0  0  0  0  0  0  0  0  0  0  0  0
    3.7160    6.5691   21.2919 O   0  0  0  0  0  0  0  0  0  0  0  0
    5.4752    5.9003   22.4503 O   0  5  0  0  0  0  0  0  0  0  0  0
  1  2  1  0  0  0  0
  2 28  1  0  0  0  0
  2  3  1  0  0  0  0
  2 30  1  0  0  0  0
  3  4  1  0  0  0  0
  4  5  1  0  0  0  0
  5 27  1  0  0  0  0
  5  6  1  0  0  0  0
  5 36  1  6  0  0  0
  6  7  1  0  0  0  0
  7  8  1  0  0  0  0
  8 13  1  0  0  0  0
  8  9  1  0  0  0  0
  8 29  1  1  0  0  0
  9 10  2  0  0  0  0
  9 27  1  0  0  0  0
 10 11  1  0  0  0  0
 12 11  1  6  0  0  0
 12 17  1  0  0  0  0
 12 13  1  0  0  0  0
 13 14  1  0  0  0  0
 13 26  1  6  0  0  0
 14 15  1  0  0  0  0
 15 16  2  0  0  0  0
 16 21  1  0  0  0  0
 16 17  1  0  0  0  0
 17 18  1  0  0  0  0
 17 25  1  6  0  0  0
 18 19  1  0  0  0  0
 19 20  1  0  0  0  0
 19 24  1  6  0  0  0
 20 21  1  0  0  0  0
 20 23  1  1  0  0  0
 21 22  1  6  0  0  0
 21 33  1  0  0  0  0
 23 31  1  0  0  0  0
 24 32  1  0  0  0  0
 27 28  1  1  0  0  0
 33 34  1  0  0  0  0
 34 35  1  0  0  0  0
 36 37  2  0  0  0  0
 36 38  1  0  0  0  0
M  CHG  1  38  -1
M  END
>  <minimizedAffinity>
2.43364

$$$$
