BDB33246


 37 40  0  0  0  0  0  0  0  0999 V2000
    2.7523   11.9940   23.6347 C   0  0  0  0  0  0  0  0  0  0  0  0
    5.5728   11.7911   23.7354 C   0  0  0  0  0  0  0  0  0  0  0  0
    4.9368   12.9260   24.1804 C   0  0  0  0  0  0  0  0  0  0  0  0
    3.5573   13.0443   24.1393 C   0  0  0  0  0  0  0  0  0  0  0  0
    3.4259   10.8506   23.1887 C   0  0  0  0  0  0  0  0  0  0  0  0
    4.8175   10.7499   23.2382 C   0  0  0  0  0  0  0  0  0  0  0  0
    7.2865   11.6787   23.8012 Cl  0  0  0  0  0  0  0  0  0  0  0  0
    3.0625   14.5456   24.7511 Cl  0  0  0  0  0  0  0  0  0  0  0  0
    1.1602   11.9316   23.5017 C   0  0  0  0  0  0  0  0  0  0  0  0
    0.6022   12.4629   22.4084 N   0  0  0  0  0  0  0  0  0  0  0  0
   -0.7215   12.4684   22.1890 C   0  0  0  0  0  0  0  0  0  0  0  0
   -1.5802   11.9388   23.0555 N   0  0  0  0  0  0  0  0  0  0  0  0
    0.2560   11.3766   24.4090 C   0  0  0  0  0  0  0  0  0  0  0  0
    0.5324   10.7627   25.6140 C   0  0  0  0  0  0  0  0  0  0  0  0
   -1.1023   11.3959   24.1581 C   0  0  0  0  0  0  0  0  0  0  0  0
   -1.9955   10.6714   25.3877 S   0  0  0  0  0  0  0  0  0  0  0  0
   -0.6060   10.3224   26.2674 C   0  0  0  0  0  0  0  0  0  0  0  0
   -1.2569   13.0576   20.9900 N   0  0  0  0  0  0  0  0  0  0  0  0
   -0.6311   13.4787   20.2923 H   0  0  0  0  0  0  0  0  0  0  0  0
   -2.2805   13.0565   20.8307 H   0  0  0  0  0  0  0  0  0  0  0  0
   -0.5316    9.6416   27.5670 C   0  0  0  0  0  0  0  0  0  0  0  0
    0.5802    8.8097   27.8351 N   0  0  0  0  0  0  0  0  0  0  0  0
   -1.4204    9.7902   28.4113 O   0  0  0  0  0  0  0  0  0  0  0  0
    1.2837    8.6975   27.1562 H   0  0  0  0  0  0  0  0  0  0  0  0
    0.7093    8.1214   29.0792 C   0  0  0  0  0  0  0  0  0  0  0  0
    2.2097    7.8585   29.3410 C   0  0  0  0  0  0  0  0  0  0  0  0
    5.5102    9.6389   22.8074 O   0  0  0  0  0  0  0  0  0  0  0  0
    4.6767    8.5917   22.4032 C   0  0  0  0  0  0  0  0  0  0  0  0
    5.0113    7.4087   23.3215 C   0  0  0  0  0  0  0  0  0  0  0  0
    3.7853    6.8434   23.8432 N   0  0  0  0  0  0  0  0  0  0  0  0
    0.9505    7.0063   24.3683 C   0  0  0  0  0  0  0  0  0  0  0  0
    1.5163    6.1058   23.2651 C   0  0  0  0  0  0  0  0  0  0  0  0
    2.8142    6.7296   22.7418 C   0  0  0  0  0  0  0  0  0  0  0  0
    3.2717    7.7303   24.9008 C   0  0  0  0  0  0  0  0  0  0  0  0
    1.9876    7.1366   25.4890 C   0  0  0  0  0  0  0  0  0  0  0  0
   -0.2054    6.4519   24.8702 F   0  0  0  0  0  0  0  0  0  0  0  0
    0.6821    8.2553   23.8463 F   0  0  0  0  0  0  0  0  0  0  0  0
  9 10  1  0  0  0
  9 13  2  0  0  0
  9  1  1  0  0  0
 10 11  2  0  0  0
 11 12  1  0  0  0
 11 18  1  0  0  0
 12 15  2  0  0  0
 13 15  1  0  0  0
 14 13  1  0  0  0
 14 17  2  0  0  0
 15 16  1  0  0  0
 16 17  1  0  0  0
 17 21  1  0  0  0
  1  5  1  0  0  0
 18 19  1  0  0  0
 18 20  1  0  0  0
 21 22  1  0  0  0
 21 23  2  0  0  0
 22 25  1  0  0  0
 22 24  1  0  0  0
  2  3  2  0  0  0
  2  6  1  0  0  0
  2  7  1  0  0  0
  3  4  1  0  0  0
  4  1  2  0  0  0
  4  8  1  0  0  0
  5  6  2  0  0  0
  6 27  1  0  0  0
 25 26  1  0  0  0
 27 28  1  0  0  0
 28 29  1  0  0  0
 29 30  1  0  0  0
 30 34  1  0  0  0
 31 32  1  0  0  0
 31 35  1  0  0  0
 31 36  1  0  0  0
 31 37  1  0  0  0
 32 33  1  0  0  0
 33 30  1  0  0  0
 34 35  1  0  0  0
M  END
> <minimizedAffinity>
-9.08253

$$$$
BDB33246


 37 40  0  0  0  0  0  0  0  0999 V2000
    4.2617   13.0283   24.2376 C   0  0  0  0  0  0  0  0  0  0  0  0
    6.9233   13.9503   24.5071 C   0  0  0  0  0  0  0  0  0  0  0  0
    5.8718   14.7025   24.9751 C   0  0  0  0  0  0  0  0  0  0  0  0
    4.5622   14.2684   24.8525 C   0  0  0  0  0  0  0  0  0  0  0  0
    5.3512   12.2834   23.7706 C   0  0  0  0  0  0  0  0  0  0  0  0
    6.6646   12.7377   23.9033 C   0  0  0  0  0  0  0  0  0  0  0  0
    8.5360   14.5200   24.6760 Cl  0  0  0  0  0  0  0  0  0  0  0  0
    3.4877   15.3986   25.5167 Cl  0  0  0  0  0  0  0  0  0  0  0  0
    2.8327   12.3520   23.9995 C   0  0  0  0  0  0  0  0  0  0  0  0
    2.0006   12.9365   23.1306 N   0  0  0  0  0  0  0  0  0  0  0  0
    0.7781   12.4596   22.8510 C   0  0  0  0  0  0  0  0  0  0  0  0
    0.3043   11.3582   23.4265 N   0  0  0  0  0  0  0  0  0  0  0  0
    2.3322   11.1964   24.6017 C   0  0  0  0  0  0  0  0  0  0  0  0
    2.9543   10.3860   25.5299 C   0  0  0  0  0  0  0  0  0  0  0  0
    1.0695   10.7271   24.2954 C   0  0  0  0  0  0  0  0  0  0  0  0
    0.6806    9.3238   25.1404 S   0  0  0  0  0  0  0  0  0  0  0  0
    2.1694    9.3147   25.9212 C   0  0  0  0  0  0  0  0  0  0  0  0
   -0.0677   13.1383   21.9048 N   0  0  0  0  0  0  0  0  0  0  0  0
    0.2565   13.9929   21.4356 H   0  0  0  0  0  0  0  0  0  0  0  0
   -1.0099   12.7614   21.6963 H   0  0  0  0  0  0  0  0  0  0  0  0
    2.6455    8.3310   26.9029 C   0  0  0  0  0  0  0  0  0  0  0  0
    2.4025    8.5692   28.2755 N   0  0  0  0  0  0  0  0  0  0  0  0
    3.2466    7.3150   26.5405 O   0  0  0  0  0  0  0  0  0  0  0  0
    1.9226    9.3816   28.5548 H   0  0  0  0  0  0  0  0  0  0  0  0
    2.8404    7.6509   29.2771 C   0  0  0  0  0  0  0  0  0  0  0  0
    1.7067    7.4777   30.3133 C   0  0  0  0  0  0  0  0  0  0  0  0
    7.7582   12.0287   23.4546 O   0  0  0  0  0  0  0  0  0  0  0  0
    7.7127   10.6728   23.7924 C   0  0  0  0  0  0  0  0  0  0  0  0
    7.8926    9.9047   22.4762 C   0  0  0  0  0  0  0  0  0  0  0  0
    6.8454    8.9135   22.3511 N   0  0  0  0  0  0  0  0  0  0  0  0
    4.0661    8.1424   22.4906 C   0  0  0  0  0  0  0  0  0  0  0  0
    4.7896    8.3141   21.1507 C   0  0  0  0  0  0  0  0  0  0  0  0
    5.8933    9.3630   21.3214 C   0  0  0  0  0  0  0  0  0  0  0  0
    6.1744    8.7717   23.6544 C   0  0  0  0  0  0  0  0  0  0  0  0
    5.0792    7.7050   23.5540 C   0  0  0  0  0  0  0  0  0  0  0  0
    3.0840    7.1857   22.3664 F   0  0  0  0  0  0  0  0  0  0  0  0
    3.5027    9.3457   22.8635 F   0  0  0  0  0  0  0  0  0  0  0  0
  9 10  1  0  0  0
  9 13  2  0  0  0
  9  1  1  0  0  0
 10 11  2  0  0  0
 11 12  1  0  0  0
 11 18  1  0  0  0
 12 15  2  0  0  0
 13 15  1  0  0  0
 14 13  1  0  0  0
 14 17  2  0  0  0
 15 16  1  0  0  0
 16 17  1  0  0  0
 17 21  1  0  0  0
  1  5  1  0  0  0
 18 19  1  0  0  0
 18 20  1  0  0  0
 21 22  1  0  0  0
 21 23  2  0  0  0
 22 25  1  0  0  0
 22 24  1  0  0  0
  2  3  2  0  0  0
  2  6  1  0  0  0
  2  7  1  0  0  0
  3  4  1  0  0  0
  4  1  2  0  0  0
  4  8  1  0  0  0
  5  6  2  0  0  0
  6 27  1  0  0  0
 25 26  1  0  0  0
 27 28  1  0  0  0
 28 29  1  0  0  0
 29 30  1  0  0  0
 30 34  1  0  0  0
 31 32  1  0  0  0
 31 35  1  0  0  0
 31 36  1  0  0  0
 31 37  1  0  0  0
 32 33  1  0  0  0
 33 30  1  0  0  0
 34 35  1  0  0  0
M  END
> <minimizedAffinity>
-8.76877

$$$$
BDB33246


 37 40  0  0  0  0  0  0  0  0999 V2000
    4.7598   10.5729   23.7770 C   0  0  0  0  0  0  0  0  0  0  0  0
    5.5064    7.8697   23.4000 C   0  0  0  0  0  0  0  0  0  0  0  0
    6.3057    8.8875   22.9354 C   0  0  0  0  0  0  0  0  0  0  0  0
    5.9575   10.2167   23.1101 C   0  0  0  0  0  0  0  0  0  0  0  0
    3.9655    9.5170   24.2395 C   0  0  0  0  0  0  0  0  0  0  0  0
    4.3333    8.1831   24.0539 C   0  0  0  0  0  0  0  0  0  0  0  0
    5.9695    6.2314   23.1655 Cl  0  0  0  0  0  0  0  0  0  0  0  0
    7.1287   11.2403   22.4367 Cl  0  0  0  0  0  0  0  0  0  0  0  0
    4.1811   12.0324   24.0789 C   0  0  0  0  0  0  0  0  0  0  0  0
    2.8566   12.2064   24.0138 N   0  0  0  0  0  0  0  0  0  0  0  0
    2.2589   13.3847   24.2471 C   0  0  0  0  0  0  0  0  0  0  0  0
    2.9523   14.4747   24.5633 N   0  0  0  0  0  0  0  0  0  0  0  0
    4.9058   13.1784   24.4110 C   0  0  0  0  0  0  0  0  0  0  0  0
    6.2730   13.3063   24.5516 C   0  0  0  0  0  0  0  0  0  0  0  0
    4.2649   14.3794   24.6462 C   0  0  0  0  0  0  0  0  0  0  0  0
    5.3381   15.6189   25.0288 S   0  0  0  0  0  0  0  0  0  0  0  0
    6.6615   14.5915   24.8899 C   0  0  0  0  0  0  0  0  0  0  0  0
    0.8271   13.5031   24.1600 N   0  0  0  0  0  0  0  0  0  0  0  0
    0.2508   12.6875   23.9187 H   0  0  0  0  0  0  0  0  0  0  0  0
    0.3760   14.4177   24.3421 H   0  0  0  0  0  0  0  0  0  0  0  0
    8.0747   14.9405   25.0871 C   0  0  0  0  0  0  0  0  0  0  0  0
    8.5444   15.1523   26.4041 N   0  0  0  0  0  0  0  0  0  0  0  0
    8.8405   15.0479   24.1244 O   0  0  0  0  0  0  0  0  0  0  0  0
    7.9267   15.0643   27.1651 H   0  0  0  0  0  0  0  0  0  0  0  0
    9.9067   15.4939   26.6604 C   0  0  0  0  0  0  0  0  0  0  0  0
   10.6940   14.1938   26.9412 C   0  0  0  0  0  0  0  0  0  0  0  0
    3.5740    7.1214   24.4969 O   0  0  0  0  0  0  0  0  0  0  0  0
    2.3590    6.9910   23.8177 C   0  0  0  0  0  0  0  0  0  0  0  0
    1.3663    6.4160   24.8368 C   0  0  0  0  0  0  0  0  0  0  0  0
    0.5142    7.4772   25.3293 N   0  0  0  0  0  0  0  0  0  0  0  0
    0.1255   10.1916   26.2343 C   0  0  0  0  0  0  0  0  0  0  0  0
   -0.3617    9.7219   24.8595 C   0  0  0  0  0  0  0  0  0  0  0  0
    0.5570    8.5963   24.3730 C   0  0  0  0  0  0  0  0  0  0  0  0
    1.0079    7.9016   26.6502 C   0  0  0  0  0  0  0  0  0  0  0  0
    0.1028    9.0062   27.2053 C   0  0  0  0  0  0  0  0  0  0  0  0
   -0.7010   11.1883   26.7020 F   0  0  0  0  0  0  0  0  0  0  0  0
    1.4162   10.6675   26.1240 F   0  0  0  0  0  0  0  0  0  0  0  0
  9 10  1  0  0  0
  9 13  2  0  0  0
  9  1  1  0  0  0
 10 11  2  0  0  0
 11 12  1  0  0  0
 11 18  1  0  0  0
 12 15  2  0  0  0
 13 15  1  0  0  0
 14 13  1  0  0  0
 14 17  2  0  0  0
 15 16  1  0  0  0
 16 17  1  0  0  0
 17 21  1  0  0  0
  1  5  1  0  0  0
 18 19  1  0  0  0
 18 20  1  0  0  0
 21 22  1  0  0  0
 21 23  2  0  0  0
 22 25  1  0  0  0
 22 24  1  0  0  0
  2  3  2  0  0  0
  2  6  1  0  0  0
  2  7  1  0  0  0
  3  4  1  0  0  0
  4  1  2  0  0  0
  4  8  1  0  0  0
  5  6  2  0  0  0
  6 27  1  0  0  0
 25 26  1  0  0  0
 27 28  1  0  0  0
 28 29  1  0  0  0
 29 30  1  0  0  0
 30 34  1  0  0  0
 31 32  1  0  0  0
 31 35  1  0  0  0
 31 36  1  0  0  0
 31 37  1  0  0  0
 32 33  1  0  0  0
 33 30  1  0  0  0
 34 35  1  0  0  0
M  END
> <minimizedAffinity>
-8.49614

$$$$
