BDB33246
 OpenBabel07192215303D

 37 40  0  0  0  0  0  0  0  0999 V2000
    2.7523   11.9940   23.6347 C   0  0  0  0  0  0  0  0  0  0  0  0
    5.5728   11.7911   23.7354 C   0  0  0  0  0  0  0  0  0  0  0  0
    4.9368   12.9260   24.1804 C   0  0  0  0  0  0  0  0  0  0  0  0
    3.5573   13.0443   24.1393 C   0  0  0  0  0  0  0  0  0  0  0  0
    3.4259   10.8506   23.1887 C   0  0  0  0  0  0  0  0  0  0  0  0
    4.8175   10.7499   23.2382 C   0  0  0  0  0  0  0  0  0  0  0  0
    7.2865   11.6787   23.8012 Cl  0  0  0  0  0  0  0  0  0  0  0  0
    3.0625   14.5456   24.7511 Cl  0  0  0  0  0  0  0  0  0  0  0  0
    1.1602   11.9316   23.5017 C   0  0  0  0  0  0  0  0  0  0  0  0
    0.6022   12.4629   22.4084 N   0  0  0  0  0  0  0  0  0  0  0  0
   -0.7215   12.4684   22.1890 C   0  0  0  0  0  0  0  0  0  0  0  0
   -1.5802   11.9388   23.0555 N   0  0  0  0  0  0  0  0  0  0  0  0
    0.2560   11.3766   24.4090 C   0  0  0  0  0  0  0  0  0  0  0  0
    0.5324   10.7627   25.6140 C   0  0  0  0  0  0  0  0  0  0  0  0
   -1.1023   11.3959   24.1581 C   0  0  0  0  0  0  0  0  0  0  0  0
   -1.9955   10.6714   25.3877 S   0  0  0  0  0  0  0  0  0  0  0  0
   -0.6060   10.3224   26.2674 C   0  0  0  0  0  0  0  0  0  0  0  0
   -1.2569   13.0576   20.9900 N   0  0  0  0  0  0  0  0  0  0  0  0
   -0.6311   13.4787   20.2923 H   0  0  0  0  0  0  0  0  0  0  0  0
   -2.2805   13.0565   20.8307 H   0  0  0  0  0  0  0  0  0  0  0  0
   -0.5316    9.6416   27.5670 C   0  0  0  0  0  0  0  0  0  0  0  0
    0.5802    8.8097   27.8351 N   0  0  0  0  0  0  0  0  0  0  0  0
   -1.4204    9.7902   28.4113 O   0  0  0  0  0  0  0  0  0  0  0  0
    1.2837    8.6975   27.1562 H   0  0  0  0  0  0  0  0  0  0  0  0
    0.7093    8.1214   29.0792 C   0  0  0  0  0  0  0  0  0  0  0  0
    2.2097    7.8585   29.3410 C   0  0  0  0  0  0  0  0  0  0  0  0
    5.5102    9.6389   22.8074 O   0  0  0  0  0  0  0  0  0  0  0  0
    4.6767    8.5917   22.4032 C   0  0  0  0  0  0  0  0  0  0  0  0
    5.0113    7.4087   23.3215 C   0  0  0  0  0  0  0  0  0  0  0  0
    3.7853    6.8434   23.8432 N   0  0  0  0  0  0  0  0  0  0  0  0
    0.9505    7.0063   24.3683 C   0  0  0  0  0  0  0  0  0  0  0  0
    1.5163    6.1058   23.2651 C   0  0  0  0  0  0  0  0  0  0  0  0
    2.8142    6.7296   22.7418 C   0  0  0  0  0  0  0  0  0  0  0  0
    3.2717    7.7303   24.9008 C   0  0  0  0  0  0  0  0  0  0  0  0
    1.9876    7.1366   25.4890 C   0  0  0  0  0  0  0  0  0  0  0  0
   -0.2054    6.4519   24.8702 F   0  0  0  0  0  0  0  0  0  0  0  0
    0.6821    8.2553   23.8463 F   0  0  0  0  0  0  0  0  0  0  0  0
  1  5  1  0  0  0  0
  2  3  2  0  0  0  0
  2  6  1  0  0  0  0
  2  7  1  0  0  0  0
  3  4  1  0  0  0  0
  4  1  2  0  0  0  0
  4  8  1  0  0  0  0
  5  6  2  0  0  0  0
  6 27  1  0  0  0  0
  9 10  1  0  0  0  0
  9 13  2  0  0  0  0
  9  1  1  0  0  0  0
 10 11  2  0  0  0  0
 11 12  1  0  0  0  0
 11 18  1  0  0  0  0
 12 15  2  0  0  0  0
 13 15  1  0  0  0  0
 14 13  1  0  0  0  0
 14 17  2  0  0  0  0
 15 16  1  0  0  0  0
 16 17  1  0  0  0  0
 17 21  1  0  0  0  0
 18 19  1  0  0  0  0
 18 20  1  0  0  0  0
 21 22  1  0  0  0  0
 21 23  2  0  0  0  0
 22 25  1  0  0  0  0
 22 24  1  0  0  0  0
 25 26  1  0  0  0  0
 27 28  1  0  0  0  0
 28 29  1  0  0  0  0
 29 30  1  0  0  0  0
 30 34  1  0  0  0  0
 31 32  1  0  0  0  0
 31 35  1  0  0  0  0
 31 36  1  0  0  0  0
 31 37  1  0  0  0  0
 32 33  1  0  0  0  0
 33 30  1  0  0  0  0
 34 35  1  0  0  0  0
M  END
>  <minimizedAffinity>
-9.08253

$$$$
