BDB50180302
 OpenBabel07192215303D

 32 35  0  0  0  0  0  0  0  0999 V2000
    6.9614   15.4739   25.1212 N   0  0  0  0  0  0  0  0  0  0  0  0
    7.9671   14.7606   24.5979 C   0  0  0  0  0  0  0  0  0  0  0  0
    7.7828   13.5664   24.0303 N   0  0  0  0  0  0  0  0  0  0  0  0
    5.7074   15.0263   25.1041 C   0  0  0  0  0  0  0  0  0  0  0  0
    5.4966   13.7927   24.5210 C   0  0  0  0  0  0  0  0  0  0  0  0
    6.5487   13.0946   23.9977 C   0  0  0  0  0  0  0  0  0  0  0  0
    6.0659   11.9676   23.5130 N   0  0  0  0  0  0  0  0  0  0  0  0
    4.7519   11.9742   23.7332 C   0  0  0  0  0  0  0  0  0  0  0  0
    4.3781   13.0968   24.3572 N   0  0  0  0  0  0  0  0  0  0  0  0
    4.6335   15.7848   25.6613 N   0  0  0  0  0  0  0  0  0  0  0  0
    3.6800   15.3969   25.6244 H   0  0  0  0  0  0  0  0  0  0  0  0
    4.8056   16.7039   26.0932 H   0  0  0  0  0  0  0  0  0  0  0  0
    3.6438   10.6673   23.2617 S   0  0  0  0  0  0  0  0  0  0  0  0
    2.4593   10.2554   24.5319 C   0  0  0  0  0  0  0  0  0  0  0  0
    1.2545   10.9582   24.5799 C   0  0  0  0  0  0  0  0  0  0  0  0
    0.3023   10.6694   25.5540 C   0  0  0  0  0  0  0  0  0  0  0  0
    2.7295    9.2514   25.4592 C   0  0  0  0  0  0  0  0  0  0  0  0
    1.7706    8.9766   26.4224 C   0  0  0  0  0  0  0  0  0  0  0  0
    0.5884    9.6673   26.4684 C   0  0  0  0  0  0  0  0  0  0  0  0
   -0.2230    9.2554   27.4821 O   0  0  0  0  0  0  0  0  0  0  0  0
    0.5759    8.1780   28.1280 C   0  0  0  0  0  0  0  0  0  0  0  0
    1.8673    8.0338   27.4012 O   0  0  0  0  0  0  0  0  0  0  0  0
    0.8857   12.4339   23.1972 I   0  0  0  0  0  0  0  0  0  0  0  0
    6.8148   10.9264   22.8678 C   0  0  0  0  0  0  0  0  0  0  0  0
    7.6831   10.1651   23.8914 C   0  0  0  0  0  0  0  0  0  0  0  0
    7.8217    8.6978   23.4456 C   0  0  0  0  0  0  0  0  0  0  0  0
    6.5695    8.2483   22.8185 N   0  3  0  0  0  0  0  0  0  0  0  0
    6.7859    7.6581   22.0025 H   0  0  0  0  0  0  0  0  0  0  0  0
    6.0251    9.0678   22.5136 H   0  0  0  0  0  0  0  0  0  0  0  0
    5.7820    7.4708   23.7901 C   0  0  0  0  0  0  0  0  0  0  0  0
    4.5880    6.8119   23.0756 C   0  0  0  0  0  0  0  0  0  0  0  0
    6.6663    6.3791   24.4244 C   0  0  0  0  0  0  0  0  0  0  0  0
  1  2  2  0  0  0  0
  2  3  1  0  0  0  0
  3  6  2  0  0  0  0
  4  1  1  0  0  0  0
  4 10  1  0  0  0  0
  5  4  2  0  0  0  0
  5  6  1  0  0  0  0
  6  7  1  0  0  0  0
  7  8  1  0  0  0  0
  7 24  1  0  0  0  0
  8  9  2  0  0  0  0
  8 13  1  0  0  0  0
  9  5  1  0  0  0  0
 10 11  1  0  0  0  0
 10 12  1  0  0  0  0
 13 14  1  0  0  0  0
 14 15  2  0  0  0  0
 15 16  1  0  0  0  0
 15 23  1  0  0  0  0
 16 19  2  0  0  0  0
 17 14  1  0  0  0  0
 18 17  2  0  0  0  0
 18 19  1  0  0  0  0
 19 20  1  0  0  0  0
 20 21  1  0  0  0  0
 21 22  1  0  0  0  0
 22 18  1  0  0  0  0
 24 25  1  0  0  0  0
 25 26  1  0  0  0  0
 26 27  1  0  0  0  0
 27 30  1  0  0  0  0
 27 28  1  0  0  0  0
 27 29  1  0  0  0  0
 30 31  1  0  0  0  0
 30 32  1  0  0  0  0
M  CHG  1  27   1
M  END
>  <minimizedAffinity>
-9.12120

$$$$
