ZINC14884725
 OpenBabel07192215303D

 37 42  0  0  0  0  0  0  0  0999 V2000
    0.2141    8.8244   25.6216 C   0  0  1  0  0  0  0  0  0  0  0  0
    1.5545    8.2581   26.0561 C   0  0  2  0  0  0  0  0  0  0  0  0
    2.7706    9.1107   26.1961 C   0  0  0  0  0  0  0  0  0  0  0  0
    4.0515    8.2815   26.2625 C   0  0  0  0  0  0  0  0  0  0  0  0
    4.0139    6.9055   25.6345 C   0  0  2  0  0  0  0  0  0  0  0  0
    4.6417    6.7729   24.2969 C   0  0  2  0  0  0  0  0  0  0  0  0
    6.0440    6.1853   24.2972 C   0  0  0  0  0  0  0  0  0  0  0  0
    7.0737    7.2810   24.3331 C   0  0  0  0  0  0  0  0  0  0  0  0
    6.8548    8.4274   23.7920 C   0  0  0  0  0  0  0  0  0  0  0  0
    7.9928    9.4403   23.7486 C   0  0  0  0  0  0  0  0  0  0  0  0
    8.0759   10.0359   22.3731 C   0  0  0  0  0  0  0  0  0  0  0  0
    7.1405    9.8885   21.4442 C   0  0  0  0  0  0  0  0  0  0  0  0
    5.9139    9.1248   21.6940 C   0  0  0  0  0  0  0  0  0  0  0  0
    5.2168    8.7336   20.7873 O   0  0  0  0  0  0  0  0  0  0  0  0
    5.5668    8.8560   23.1501 C   0  0  1  0  0  0  0  0  0  0  0  0
    4.4595    7.8318   23.2533 C   0  0  2  0  0  0  0  0  0  0  0  0
    3.0769    8.4973   23.3874 C   0  0  0  0  0  0  0  0  0  0  0  0
    2.0077    7.4509   23.6508 C   0  0  0  0  0  0  0  0  0  0  0  0
    1.7577    7.0679   25.0819 C   0  0  1  0  0  0  0  0  0  0  0  0
    2.7342    6.2783   25.6977 O   0  0  0  0  0  0  0  0  0  0  0  0
    0.3090    6.5200   25.1651 C   0  0  1  0  0  0  0  0  0  0  0  0
   -0.4754    7.7267   24.9704 O   0  0  0  0  0  0  0  0  0  0  0  0
    0.0745    5.5812   24.1202 O   0  0  0  0  0  0  0  0  0  0  0  0
    5.1617   10.2097   23.7425 C   0  0  0  0  0  0  0  0  0  0  0  0
    4.8136    6.0941   26.5238 O   0  0  0  0  0  0  0  0  0  0  0  0
   -0.5886    9.2527   26.8592 C   0  0  0  0  0  0  0  0  0  0  0  0
    0.7164    4.8324   24.2066 H   0  0  0  0  0  0  0  0  0  0  0  0
    4.4230    6.0448   27.4321 H   0  0  0  0  0  0  0  0  0  0  0  0
   -2.0384   12.6092   23.0794 C   0  0  0  0  0  0  0  0  0  0  0  0
   -0.8520   12.0065   23.7867 C   0  0  0  0  0  0  0  0  0  0  0  0
    0.3040   12.6591   23.7793 C   0  0  0  0  0  0  0  0  0  0  0  0
    1.4788   12.0827   24.4577 C   0  0  0  0  0  0  0  0  0  0  0  0
    2.5845   12.5697   24.3261 O   0  0  0  0  0  0  0  0  0  0  0  0
    1.2796   10.9879   25.2353 O   0  0  0  0  0  0  0  0  0  0  0  0
    0.3532   10.0138   24.6693 C   0  0  2  0  0  0  0  0  0  0  0  0
   -1.0106   10.6803   24.4785 C   0  0  0  0  0  0  0  0  0  0  0  0
    0.4149   13.9887   23.0784 C   0  0  0  0  0  0  0  0  0  0  0  0
  1 22  1  0  0  0  0
  1  2  1  0  0  0  0
  1 26  1  1  0  0  0
  2 19  1  0  0  0  0
  2  3  1  6  0  0  0
  3  4  1  0  0  0  0
  4  5  1  0  0  0  0
  5 20  1  0  0  0  0
  5  6  1  0  0  0  0
  5 25  1  1  0  0  0
  6 16  1  0  0  0  0
  6  7  1  1  0  0  0
  7  8  1  0  0  0  0
  8  9  2  0  0  0  0
  9 15  1  0  0  0  0
  9 10  1  0  0  0  0
 10 11  1  0  0  0  0
 11 12  2  0  0  0  0
 12 13  1  0  0  0  0
 13 14  2  0  0  0  0
 13 15  1  0  0  0  0
 15 16  1  0  0  0  0
 15 24  1  1  0  0  0
 16 17  1  1  0  0  0
 17 18  1  0  0  0  0
 19 18  1  6  0  0  0
 19 20  1  0  0  0  0
 19 21  1  0  0  0  0
 21 22  1  0  0  0  0
 21 23  1  6  0  0  0
 23 27  1  0  0  0  0
 25 28  1  0  0  0  0
 29 30  1  0  0  0  0
 30 36  1  0  0  0  0
 30 31  2  0  0  0  0
 31 32  1  0  0  0  0
 31 37  1  0  0  0  0
 32 33  2  0  0  0  0
 32 34  1  0  0  0  0
 34 35  1  0  0  0  0
 35 36  1  1  0  0  0
 35  1  1  0  0  0  0
M  END
>  <minimizedAffinity>
-5.07043

$$$$
