BDB20885
 OpenBabel07192215303D

 39 41  0  0  0  0  0  0  0  0999 V2000
    4.2682   13.8702   24.5772 C   0  0  0  0  0  0  0  0  0  0  0  0
    5.6340   13.5513   24.4036 C   0  0  0  0  0  0  0  0  0  0  0  0
    6.2955   14.7096   24.8189 C   0  0  0  0  0  0  0  0  0  0  0  0
    5.3683   15.5852   25.1791 N   0  0  0  0  0  0  0  0  0  0  0  0
    4.1989   15.1118   25.0516 N   0  0  0  0  0  0  0  0  0  0  0  0
    5.5652   16.4984   25.5210 H   0  0  0  0  0  0  0  0  0  0  0  0
    1.8264   10.8953   24.2506 C   0  0  0  0  0  0  0  0  0  0  0  0
    0.6165   11.5280   24.0216 C   0  0  0  0  0  0  0  0  0  0  0  0
    0.5917   12.9162   23.9266 C   0  0  0  0  0  0  0  0  0  0  0  0
    1.7544   13.6712   24.0827 C   0  0  0  0  0  0  0  0  0  0  0  0
    2.9738   13.0434   24.3430 C   0  0  0  0  0  0  0  0  0  0  0  0
    2.9641   11.6635   24.3996 C   0  0  0  0  0  0  0  0  0  0  0  0
   -0.5558   10.7835   23.8936 O   0  0  0  0  0  0  0  0  0  0  0  0
    1.6760   15.0511   23.9772 O   0  0  0  0  0  0  0  0  0  0  0  0
    1.9524    9.1788   24.3859 Cl  0  0  0  0  0  0  0  0  0  0  0  0
   -0.3569    9.8191   23.9969 H   0  0  0  0  0  0  0  0  0  0  0  0
    0.7359   15.3085   23.7906 H   0  0  0  0  0  0  0  0  0  0  0  0
    6.3050   12.2233   23.8937 C   0  0  0  0  0  0  0  0  0  0  0  0
    7.5709    9.8580   23.0172 C   0  0  0  0  0  0  0  0  0  0  0  0
    8.2603   10.7829   23.7742 C   0  0  0  0  0  0  0  0  0  0  0  0
    7.6223   11.9336   24.1877 C   0  0  0  0  0  0  0  0  0  0  0  0
    5.6290   11.2790   23.1271 C   0  0  0  0  0  0  0  0  0  0  0  0
    6.2455   10.1091   22.6875 C   0  0  0  0  0  0  0  0  0  0  0  0
    8.2758    8.6176   22.5830 C   0  0  0  0  0  0  0  0  0  0  0  0
    7.5388    7.4514   23.1258 N   0  3  0  0  0  0  0  0  0  0  0  0
    6.5249    7.5692   22.9689 H   0  0  0  0  0  0  0  0  0  0  0  0
    7.8627    6.5855   22.6643 H   0  0  0  0  0  0  0  0  0  0  0  0
    7.7809    7.3483   24.5518 C   0  0  0  0  0  0  0  0  0  0  0  0
    6.8495    6.2848   25.1427 C   0  0  0  0  0  0  0  0  0  0  0  0
    4.0400    5.4416   25.1611 C   0  0  0  0  0  0  0  0  0  0  0  0
    5.3001    6.3489   24.2338 S   0  0  0  0  0  0  0  0  0  0  0  0
    5.4801    5.7240   22.8637 O   0  0  0  0  0  0  0  0  0  0  0  0
    4.8758    7.7974   24.0845 O   0  0  0  0  0  0  0  0  0  0  0  0
    7.7694   15.0138   24.8990 C   0  0  0  0  0  0  0  0  0  0  0  0
    8.4730   15.1509   23.9027 O   0  0  0  0  0  0  0  0  0  0  0  0
    8.4008   15.1356   26.1286 N   0  0  0  0  0  0  0  0  0  0  0  0
    7.8938   15.0282   26.9741 H   0  0  0  0  0  0  0  0  0  0  0  0
    9.8112   15.4168   26.1512 C   0  0  0  0  0  0  0  0  0  0  0  0
   10.6030   14.1436   26.4792 C   0  0  0  0  0  0  0  0  0  0  0  0
  1  5  2  0  0  0  0
  2  1  1  0  0  0  0
  2  3  2  0  0  0  0
  2 18  1  0  0  0  0
  3 34  1  0  0  0  0
  4  3  1  0  0  0  0
  4  6  1  0  0  0  0
  5  4  1  0  0  0  0
  7  8  2  0  0  0  0
  7 12  1  0  0  0  0
  7 15  1  0  0  0  0
  8  9  1  0  0  0  0
  8 13  1  0  0  0  0
  9 10  2  0  0  0  0
 10 11  1  0  0  0  0
 10 14  1  0  0  0  0
 11 12  2  0  0  0  0
 11  1  1  0  0  0  0
 13 16  1  0  0  0  0
 14 17  1  0  0  0  0
 18 22  1  0  0  0  0
 19 20  2  0  0  0  0
 19 23  1  0  0  0  0
 19 24  1  0  0  0  0
 20 21  1  0  0  0  0
 21 18  2  0  0  0  0
 22 23  2  0  0  0  0
 24 25  1  0  0  0  0
 25 28  1  0  0  0  0
 25 26  1  0  0  0  0
 25 27  1  0  0  0  0
 28 29  1  0  0  0  0
 29 31  1  0  0  0  0
 31 30  1  0  0  0  0
 31 32  2  0  0  0  0
 31 33  2  0  0  0  0
 34 35  2  0  0  0  0
 34 36  1  0  0  0  0
 36 38  1  0  0  0  0
 36 37  1  0  0  0  0
 38 39  1  0  0  0  0
M  CHG  1  25   1
M  END
>  <minimizedAffinity>
-10.07000

$$$$
