ZINC03832017
 OpenBabel07192215303D

 26 29  0  0  0  0  0  0  0  0999 V2000
    6.0987   11.8198   23.4691 N   0  0  0  0  0  0  0  0  0  0  0  0
    4.7609   11.7810   23.7281 C   0  0  0  0  0  0  0  0  0  0  0  0
    4.3931   12.8741   24.3324 N   0  0  0  0  0  0  0  0  0  0  0  0
    5.4664   13.6850   24.4895 C   0  0  0  0  0  0  0  0  0  0  0  0
    6.5742   13.0185   23.9382 C   0  0  0  0  0  0  0  0  0  0  0  0
    7.7634   13.6099   23.9664 N   0  0  0  0  0  0  0  0  0  0  0  0
    7.9065   14.8042   24.5038 C   0  0  0  0  0  0  0  0  0  0  0  0
    6.8963   15.4681   25.0337 N   0  0  0  0  0  0  0  0  0  0  0  0
    5.6697   14.9570   25.0508 C   0  0  0  0  0  0  0  0  0  0  0  0
    4.6170   15.6610   25.6098 N   0  0  0  0  0  0  0  0  0  0  0  0
    4.8102   15.8395   26.5748 H   0  0  0  0  0  0  0  0  0  0  0  0
    3.7264   15.2771   25.6166 H   0  0  0  0  0  0  0  0  0  0  0  0
    6.8841   10.7758   22.8057 C   0  0  0  0  0  0  0  0  0  0  0  0
    7.7783   10.0808   23.8338 C   0  0  0  0  0  0  0  0  0  0  0  0
    7.7856    7.6709   24.4956 C   0  0  0  0  0  0  0  0  0  0  0  0
    8.0839    8.6568   23.3638 C   0  0  0  0  0  0  0  0  0  0  0  0
    3.8443   10.6400   23.3707 C   0  0  0  0  0  0  0  0  0  0  0  0
    2.4111   11.0843   23.5102 C   0  0  0  0  0  0  0  0  0  0  0  0
    1.9388   12.1384   22.7503 C   0  0  0  0  0  0  0  0  0  0  0  0
    0.6248   12.5493   22.8744 C   0  0  0  0  0  0  0  0  0  0  0  0
   -0.2222   11.9063   23.7619 C   0  0  0  0  0  0  0  0  0  0  0  0
    0.2533   10.8448   24.5275 C   0  0  0  0  0  0  0  0  0  0  0  0
    1.5696   10.4341   24.3936 C   0  0  0  0  0  0  0  0  0  0  0  0
   -0.7627   10.3845   25.3154 O   0  0  0  0  0  0  0  0  0  0  0  0
   -1.9696   10.9071   24.7287 C   0  0  0  0  0  0  0  0  0  0  0  0
   -1.5367   12.1120   24.0700 O   0  0  0  0  0  0  0  0  0  0  0  0
  1  2  1  0  0  0  0
  1  5  1  0  0  0  0
  2  3  2  0  0  0  0
  2 17  1  0  0  0  0
  3  4  1  0  0  0  0
  4  5  2  0  0  0  0
  4  9  1  0  0  0  0
  5  6  1  0  0  0  0
  6  7  2  0  0  0  0
  7  8  1  0  0  0  0
  8  9  2  0  0  0  0
  9 10  1  0  0  0  0
 10 11  1  0  0  0  0
 10 12  1  0  0  0  0
 13  1  1  0  0  0  0
 14 13  1  0  0  0  0
 15 16  1  0  0  0  0
 16 14  1  0  0  0  0
 17 18  1  0  0  0  0
 18 19  2  0  0  0  0
 18 23  1  0  0  0  0
 19 20  1  0  0  0  0
 20 21  2  0  0  0  0
 21 22  1  0  0  0  0
 21 26  1  0  0  0  0
 22 23  2  0  0  0  0
 22 24  1  0  0  0  0
 24 25  1  0  0  0  0
 25 26  1  0  0  0  0
M  END
>  <minimizedAffinity>
-9.90601

$$$$
