ZINC03832020


 30 32  0  0  0  0  0  0  0  0999 V2000
    6.2233   11.7739   23.3775 N   0  0  0  0  0  0  0  0  0  0  0  0
    4.8765   11.6069   23.5095 C   0  0  0  0  0  0  0  0  0  0  0  0
    4.3584   12.6358   24.1149 N   0  0  0  0  0  0  0  0  0  0  0  0
    5.3361   13.5257   24.4098 C   0  0  0  0  0  0  0  0  0  0  0  0
    6.5448   12.9819   23.9442 C   0  0  0  0  0  0  0  0  0  0  0  0
    7.6688   13.6719   24.1078 N   0  0  0  0  0  0  0  0  0  0  0  0
    7.6549   14.8453   24.7053 C   0  0  0  0  0  0  0  0  0  0  0  0
    6.5447   15.3943   25.1629 N   0  0  0  0  0  0  0  0  0  0  0  0
    5.3717   14.7808   25.0404 C   0  0  0  0  0  0  0  0  0  0  0  0
    4.2138   15.3639   25.5234 N   0  0  0  0  0  0  0  0  0  0  0  0
    3.5693   15.4992   24.7702 H   0  0  0  0  0  0  0  0  0  0  0  0
    4.2512   16.2308   25.9573 H   0  0  0  0  0  0  0  0  0  0  0  0
    7.1566   10.8352   22.7506 C   0  0  0  0  0  0  0  0  0  0  0  0
    7.8134    9.9719   23.8293 C   0  0  0  0  0  0  0  0  0  0  0  0
    7.8285    7.5909   24.5885 C   0  0  0  0  0  0  0  0  0  0  0  0
    7.8416    8.5137   23.3677 C   0  0  0  0  0  0  0  0  0  0  0  0
    4.1043   10.4073   23.0255 C   0  0  0  0  0  0  0  0  0  0  0  0
    2.7827   10.3364   23.7463 C   0  0  0  0  0  0  0  0  0  0  0  0
    1.8739   11.3703   23.6228 C   0  0  0  0  0  0  0  0  0  0  0  0
    0.6566   11.3095   24.2847 C   0  0  0  0  0  0  0  0  0  0  0  0
    0.3506   10.2057   25.0730 C   0  0  0  0  0  0  0  0  0  0  0  0
    1.2663    9.1686   25.1948 C   0  0  0  0  0  0  0  0  0  0  0  0
    2.4802    9.2345   24.5254 C   0  0  0  0  0  0  0  0  0  0  0  0
    3.6223    7.9353   24.6713 Cl  0  0  0  0  0  0  0  0  0  0  0  0
    0.9710    8.0864   25.9647 O   0  0  0  0  0  0  0  0  0  0  0  0
    0.2447    7.0247   25.3415 C   0  0  0  0  0  0  0  0  0  0  0  0
   -0.8429   10.1425   25.7236 O   0  0  0  0  0  0  0  0  0  0  0  0
   -0.8586   10.5515   27.0920 C   0  0  0  0  0  0  0  0  0  0  0  0
   -0.2363   12.3280   24.1618 O   0  0  0  0  0  0  0  0  0  0  0  0
   -1.1945   12.2272   23.1073 C   0  0  0  0  0  0  0  0  0  0  0  0
 15 16  1  0  0  0
 16 14  1  0  0  0
 14 13  1  0  0  0
 13  1  1  0  0  0
  1  2  1  0  0  0
  1  5  1  0  0  0
  2  3  2  0  0  0
  2 17  1  0  0  0
  3  4  1  0  0  0
  4  5  2  0  0  0
  4  9  1  0  0  0
  5  6  1  0  0  0
  6  7  2  0  0  0
  7  8  1  0  0  0
  8  9  2  0  0  0
  9 10  1  0  0  0
 10 11  1  0  0  0
 10 12  1  0  0  0
 17 18  1  0  0  0
 18 19  2  0  0  0
 18 23  1  0  0  0
 19 20  1  0  0  0
 20 21  2  0  0  0
 20 29  1  0  0  0
 21 22  1  0  0  0
 21 27  1  0  0  0
 22 23  2  0  0  0
 22 25  1  0  0  0
 23 24  1  0  0  0
 25 26  1  0  0  0
 27 28  1  0  0  0
 29 30  1  0  0  0
M  END
> <minimizedAffinity>
-9.41558

$$$$
ZINC03832020


 30 32  0  0  0  0  0  0  0  0999 V2000
    6.1722   11.8314   23.3871 N   0  0  0  0  0  0  0  0  0  0  0  0
    4.8185   11.8137   23.5486 C   0  0  0  0  0  0  0  0  0  0  0  0
    4.4317   12.8870   24.1750 N   0  0  0  0  0  0  0  0  0  0  0  0
    5.5087   13.6591   24.4551 C   0  0  0  0  0  0  0  0  0  0  0  0
    6.6387   12.9896   23.9570 C   0  0  0  0  0  0  0  0  0  0  0  0
    7.8360   13.5483   24.1008 N   0  0  0  0  0  0  0  0  0  0  0  0
    7.9660   14.7091   24.7089 C   0  0  0  0  0  0  0  0  0  0  0  0
    6.9343   15.3730   25.1968 N   0  0  0  0  0  0  0  0  0  0  0  0
    5.6978   14.8952   25.0959 C   0  0  0  0  0  0  0  0  0  0  0  0
    4.6230   15.5979   25.6106 N   0  0  0  0  0  0  0  0  0  0  0  0
    3.9812   15.8127   24.8738 H   0  0  0  0  0  0  0  0  0  0  0  0
    4.7663   16.4503   26.0513 H   0  0  0  0  0  0  0  0  0  0  0  0
    6.9811   10.8019   22.7305 C   0  0  0  0  0  0  0  0  0  0  0  0
    7.7538   10.0096   23.7867 C   0  0  0  0  0  0  0  0  0  0  0  0
    8.2134    7.5629   24.0055 C   0  0  0  0  0  0  0  0  0  0  0  0
    7.1167    8.6290   23.9552 C   0  0  0  0  0  0  0  0  0  0  0  0
    3.9069   10.7132   23.0718 C   0  0  0  0  0  0  0  0  0  0  0  0
    2.9993   10.2894   24.1979 C   0  0  0  0  0  0  0  0  0  0  0  0
    3.3885    9.2753   25.0525 C   0  0  0  0  0  0  0  0  0  0  0  0
    2.5563    8.8818   26.0898 C   0  0  0  0  0  0  0  0  0  0  0  0
    1.3289    9.5098   26.2701 C   0  0  0  0  0  0  0  0  0  0  0  0
    0.9411   10.5286   25.4095 C   0  0  0  0  0  0  0  0  0  0  0  0
    1.7815   10.9200   24.3768 C   0  0  0  0  0  0  0  0  0  0  0  0
    1.3007   12.1982   23.3050 Cl  0  0  0  0  0  0  0  0  0  0  0  0
   -0.2588   11.1461   25.5823 O   0  0  0  0  0  0  0  0  0  0  0  0
   -1.3526   10.6727   24.7933 C   0  0  0  0  0  0  0  0  0  0  0  0
    0.5099    9.1265   27.2870 O   0  0  0  0  0  0  0  0  0  0  0  0
   -0.1320    7.8569   27.1600 C   0  0  0  0  0  0  0  0  0  0  0  0
    2.9411    7.8836   26.9296 O   0  0  0  0  0  0  0  0  0  0  0  0
    3.4317    6.6838   26.3294 C   0  0  0  0  0  0  0  0  0  0  0  0
 15 16  1  0  0  0
 16 14  1  0  0  0
 14 13  1  0  0  0
 13  1  1  0  0  0
  1  2  1  0  0  0
  1  5  1  0  0  0
  2  3  2  0  0  0
  2 17  1  0  0  0
  3  4  1  0  0  0
  4  5  2  0  0  0
  4  9  1  0  0  0
  5  6  1  0  0  0
  6  7  2  0  0  0
  7  8  1  0  0  0
  8  9  2  0  0  0
  9 10  1  0  0  0
 10 11  1  0  0  0
 10 12  1  0  0  0
 17 18  1  0  0  0
 18 19  2  0  0  0
 18 23  1  0  0  0
 19 20  1  0  0  0
 20 21  2  0  0  0
 20 29  1  0  0  0
 21 22  1  0  0  0
 21 27  1  0  0  0
 22 23  2  0  0  0
 22 25  1  0  0  0
 23 24  1  0  0  0
 25 26  1  0  0  0
 27 28  1  0  0  0
 29 30  1  0  0  0
M  END
> <minimizedAffinity>
-9.40503

$$$$
ZINC03832020


 30 32  0  0  0  0  0  0  0  0999 V2000
    3.2105    9.0341   24.4188 N   0  0  0  0  0  0  0  0  0  0  0  0
    3.3421   10.0280   23.4948 C   0  0  0  0  0  0  0  0  0  0  0  0
    3.7156    9.5269   22.3533 N   0  0  0  0  0  0  0  0  0  0  0  0
    3.8477    8.1840   22.4713 C   0  0  0  0  0  0  0  0  0  0  0  0
    3.5295    7.8520   23.7986 C   0  0  0  0  0  0  0  0  0  0  0  0
    3.5767    6.5782   24.1748 N   0  0  0  0  0  0  0  0  0  0  0  0
    3.9250    5.6387   23.3202 C   0  0  0  0  0  0  0  0  0  0  0  0
    4.2367    5.9030   22.0647 N   0  0  0  0  0  0  0  0  0  0  0  0
    4.2132    7.1471   21.5965 C   0  0  0  0  0  0  0  0  0  0  0  0
    4.5418    7.4142   20.2794 N   0  0  0  0  0  0  0  0  0  0  0  0
    3.7621    7.8422   19.8213 H   0  0  0  0  0  0  0  0  0  0  0  0
    4.7929    6.6897   19.6850 H   0  0  0  0  0  0  0  0  0  0  0  0
    2.8074    9.1975   25.8174 C   0  0  0  0  0  0  0  0  0  0  0  0
    1.3795    8.6802   26.0006 C   0  0  0  0  0  0  0  0  0  0  0  0
   -0.3668   10.0151   24.8115 C   0  0  0  0  0  0  0  0  0  0  0  0
    0.4191    9.8653   26.1161 C   0  0  0  0  0  0  0  0  0  0  0  0
    3.0920   11.4900   23.7586 C   0  0  0  0  0  0  0  0  0  0  0  0
    4.4095   12.2054   23.9124 C   0  0  0  0  0  0  0  0  0  0  0  0
    5.5902   11.5421   23.6365 C   0  0  0  0  0  0  0  0  0  0  0  0
    6.8050   12.1963   23.7771 C   0  0  0  0  0  0  0  0  0  0  0  0
    6.8340   13.5220   24.1955 C   0  0  0  0  0  0  0  0  0  0  0  0
    5.6456   14.1854   24.4718 C   0  0  0  0  0  0  0  0  0  0  0  0
    4.4337   13.5254   24.3240 C   0  0  0  0  0  0  0  0  0  0  0  0
    2.9474   14.3562   24.6622 Cl  0  0  0  0  0  0  0  0  0  0  0  0
    5.6691   15.4827   24.8810 O   0  0  0  0  0  0  0  0  0  0  0  0
    5.0826   15.7737   26.1516 C   0  0  0  0  0  0  0  0  0  0  0  0
    8.0241   14.1672   24.3342 O   0  0  0  0  0  0  0  0  0  0  0  0
    8.5968   14.1986   25.6423 C   0  0  0  0  0  0  0  0  0  0  0  0
    7.9658   11.5418   23.5052 O   0  0  0  0  0  0  0  0  0  0  0  0
    7.9199   10.1141   23.5003 C   0  0  0  0  0  0  0  0  0  0  0  0
 15 16  1  0  0  0
 16 14  1  0  0  0
 14 13  1  0  0  0
 13  1  1  0  0  0
  1  2  1  0  0  0
  1  5  1  0  0  0
  2  3  2  0  0  0
  2 17  1  0  0  0
  3  4  1  0  0  0
  4  5  2  0  0  0
  4  9  1  0  0  0
  5  6  1  0  0  0
  6  7  2  0  0  0
  7  8  1  0  0  0
  8  9  2  0  0  0
  9 10  1  0  0  0
 10 11  1  0  0  0
 10 12  1  0  0  0
 17 18  1  0  0  0
 18 19  2  0  0  0
 18 23  1  0  0  0
 19 20  1  0  0  0
 20 21  2  0  0  0
 20 29  1  0  0  0
 21 22  1  0  0  0
 21 27  1  0  0  0
 22 23  2  0  0  0
 22 25  1  0  0  0
 23 24  1  0  0  0
 25 26  1  0  0  0
 27 28  1  0  0  0
 29 30  1  0  0  0
M  END
> <minimizedAffinity>
-8.83918

$$$$
