ZINC03832020
 OpenBabel07192215303D

 30 32  0  0  0  0  0  0  0  0999 V2000
    6.2233   11.7739   23.3775 N   0  0  0  0  0  0  0  0  0  0  0  0
    4.8765   11.6069   23.5095 C   0  0  0  0  0  0  0  0  0  0  0  0
    4.3584   12.6358   24.1149 N   0  0  0  0  0  0  0  0  0  0  0  0
    5.3361   13.5257   24.4098 C   0  0  0  0  0  0  0  0  0  0  0  0
    6.5448   12.9819   23.9442 C   0  0  0  0  0  0  0  0  0  0  0  0
    7.6688   13.6719   24.1078 N   0  0  0  0  0  0  0  0  0  0  0  0
    7.6549   14.8453   24.7053 C   0  0  0  0  0  0  0  0  0  0  0  0
    6.5447   15.3943   25.1629 N   0  0  0  0  0  0  0  0  0  0  0  0
    5.3717   14.7808   25.0404 C   0  0  0  0  0  0  0  0  0  0  0  0
    4.2138   15.3639   25.5234 N   0  0  0  0  0  0  0  0  0  0  0  0
    3.5693   15.4992   24.7702 H   0  0  0  0  0  0  0  0  0  0  0  0
    4.2512   16.2308   25.9573 H   0  0  0  0  0  0  0  0  0  0  0  0
    7.1566   10.8352   22.7506 C   0  0  0  0  0  0  0  0  0  0  0  0
    7.8134    9.9719   23.8293 C   0  0  0  0  0  0  0  0  0  0  0  0
    7.8285    7.5909   24.5885 C   0  0  0  0  0  0  0  0  0  0  0  0
    7.8416    8.5137   23.3677 C   0  0  0  0  0  0  0  0  0  0  0  0
    4.1043   10.4073   23.0255 C   0  0  0  0  0  0  0  0  0  0  0  0
    2.7827   10.3364   23.7463 C   0  0  0  0  0  0  0  0  0  0  0  0
    1.8739   11.3703   23.6228 C   0  0  0  0  0  0  0  0  0  0  0  0
    0.6566   11.3095   24.2847 C   0  0  0  0  0  0  0  0  0  0  0  0
    0.3506   10.2057   25.0730 C   0  0  0  0  0  0  0  0  0  0  0  0
    1.2663    9.1686   25.1948 C   0  0  0  0  0  0  0  0  0  0  0  0
    2.4802    9.2345   24.5254 C   0  0  0  0  0  0  0  0  0  0  0  0
    3.6223    7.9353   24.6713 Cl  0  0  0  0  0  0  0  0  0  0  0  0
    0.9710    8.0864   25.9647 O   0  0  0  0  0  0  0  0  0  0  0  0
    0.2447    7.0247   25.3415 C   0  0  0  0  0  0  0  0  0  0  0  0
   -0.8429   10.1425   25.7236 O   0  0  0  0  0  0  0  0  0  0  0  0
   -0.8586   10.5515   27.0920 C   0  0  0  0  0  0  0  0  0  0  0  0
   -0.2363   12.3280   24.1618 O   0  0  0  0  0  0  0  0  0  0  0  0
   -1.1945   12.2272   23.1073 C   0  0  0  0  0  0  0  0  0  0  0  0
  1  2  1  0  0  0  0
  1  5  1  0  0  0  0
  2  3  2  0  0  0  0
  2 17  1  0  0  0  0
  3  4  1  0  0  0  0
  4  5  2  0  0  0  0
  4  9  1  0  0  0  0
  5  6  1  0  0  0  0
  6  7  2  0  0  0  0
  7  8  1  0  0  0  0
  8  9  2  0  0  0  0
  9 10  1  0  0  0  0
 10 11  1  0  0  0  0
 10 12  1  0  0  0  0
 13  1  1  0  0  0  0
 14 13  1  0  0  0  0
 15 16  1  0  0  0  0
 16 14  1  0  0  0  0
 17 18  1  0  0  0  0
 18 19  2  0  0  0  0
 18 23  1  0  0  0  0
 19 20  1  0  0  0  0
 20 21  2  0  0  0  0
 20 29  1  0  0  0  0
 21 22  1  0  0  0  0
 21 27  1  0  0  0  0
 22 23  2  0  0  0  0
 22 25  1  0  0  0  0
 23 24  1  0  0  0  0
 25 26  1  0  0  0  0
 27 28  1  0  0  0  0
 29 30  1  0  0  0  0
M  END
>  <minimizedAffinity>
-9.41558

$$$$
