ZINC00038397
 OpenBabel07192215303D

 26 27  0  0  0  0  0  0  0  0999 V2000
    4.8934   10.2775   23.4311 N   0  0  0  0  0  0  0  0  0  0  0  0
    6.1533   10.0090   23.8276 C   0  0  0  0  0  0  0  0  0  0  0  0
    6.4041    8.9576   24.3780 O   0  0  0  0  0  0  0  0  0  0  0  0
    4.6919   11.1179   22.9918 H   0  0  0  0  0  0  0  0  0  0  0  0
    2.0671    6.1457   22.6765 C   0  0  0  0  0  0  0  0  0  0  0  0
    2.4759    7.4120   23.3850 C   0  0  0  0  0  0  0  0  0  0  0  0
    1.8137    7.8535   24.4693 C   0  0  0  0  0  0  0  0  0  0  0  0
    2.6875    9.3442   24.9037 S   0  0  0  0  0  0  0  0  0  0  0  0
    3.8848    9.3519   23.6524 C   0  0  0  0  0  0  0  0  0  0  0  0
    3.5940    8.2019   22.9270 C   0  0  0  0  0  0  0  0  0  0  0  0
    0.6237    7.2344   25.1555 C   0  0  0  0  0  0  0  0  0  0  0  0
    4.3831    7.8114   21.7554 C   0  0  0  0  0  0  0  0  0  0  0  0
    4.4855    8.5708   20.8100 O   0  0  0  0  0  0  0  0  0  0  0  0
    4.9943    6.6102   21.7242 N   0  0  0  0  0  0  0  0  0  0  0  0
    4.9126    6.0045   22.4771 H   0  0  0  0  0  0  0  0  0  0  0  0
    5.5165    6.3519   20.9490 H   0  0  0  0  0  0  0  0  0  0  0  0
    7.2498   11.0144   23.5878 C   0  0  0  0  0  0  0  0  0  0  0  0
    6.6857   12.2187   23.0658 O   0  0  0  0  0  0  0  0  0  0  0  0
    6.4594   13.2279   23.9496 C   0  0  0  0  0  0  0  0  0  0  0  0
    7.5246   13.9419   24.4760 C   0  0  0  0  0  0  0  0  0  0  0  0
    7.2928   14.9678   25.3730 C   0  0  0  0  0  0  0  0  0  0  0  0
    6.0000   15.2844   25.7472 C   0  0  0  0  0  0  0  0  0  0  0  0
    4.9332   14.5797   25.2221 C   0  0  0  0  0  0  0  0  0  0  0  0
    5.1591   13.5458   24.3268 C   0  0  0  0  0  0  0  0  0  0  0  0
    4.1104   12.8485   23.8131 O   0  0  0  0  0  0  0  0  0  0  0  0
    2.8107   13.1693   24.3122 C   0  0  0  0  0  0  0  0  0  0  0  0
  1  2  1  0  0  0  0
  1  4  1  0  0  0  0
  2  3  2  0  0  0  0
  2 17  1  0  0  0  0
  5  6  1  0  0  0  0
  6  7  2  0  0  0  0
  6 10  1  0  0  0  0
  7  8  1  0  0  0  0
  7 11  1  0  0  0  0
  8  9  1  0  0  0  0
  9 10  2  0  0  0  0
  9  1  1  0  0  0  0
 10 12  1  0  0  0  0
 12 13  2  0  0  0  0
 12 14  1  0  0  0  0
 14 15  1  0  0  0  0
 14 16  1  0  0  0  0
 17 18  1  0  0  0  0
 18 19  1  0  0  0  0
 19 20  2  0  0  0  0
 19 24  1  0  0  0  0
 20 21  1  0  0  0  0
 21 22  2  0  0  0  0
 22 23  1  0  0  0  0
 23 24  2  0  0  0  0
 24 25  1  0  0  0  0
 25 26  1  0  0  0  0
M  END
>  <minimizedAffinity>
-7.72050

$$$$
