ZINC03832016
 OpenBabel07192215303D

 25 27  0  0  0  0  0  0  0  0999 V2000
    5.8384   11.8703   23.5118 N   0  0  0  0  0  0  0  0  0  0  0  0
    4.5123   11.9282   23.8204 C   0  0  0  0  0  0  0  0  0  0  0  0
    4.2479   13.0448   24.4366 N   0  0  0  0  0  0  0  0  0  0  0  0
    5.3831   13.7760   24.5524 C   0  0  0  0  0  0  0  0  0  0  0  0
    6.4176   13.0304   23.9600 C   0  0  0  0  0  0  0  0  0  0  0  0
    7.6469   13.5346   23.9426 N   0  0  0  0  0  0  0  0  0  0  0  0
    7.8965   14.7136   24.4709 C   0  0  0  0  0  0  0  0  0  0  0  0
    6.9583   15.4491   25.0375 N   0  0  0  0  0  0  0  0  0  0  0  0
    5.6995   15.0284   25.1025 C   0  0  0  0  0  0  0  0  0  0  0  0
    4.7228   15.8071   25.6992 N   0  0  0  0  0  0  0  0  0  0  0  0
    4.9649   15.9707   26.6560 H   0  0  0  0  0  0  0  0  0  0  0  0
    3.8070   15.4888   25.7402 H   0  0  0  0  0  0  0  0  0  0  0  0
    6.5200   10.7729   22.8217 C   0  0  0  0  0  0  0  0  0  0  0  0
    7.9592    7.6665   24.5587 C   0  0  0  0  0  0  0  0  0  0  0  0
    7.2301    8.5689   23.5967 C   0  0  0  0  0  0  0  0  0  0  0  0
    7.1499    9.8546   23.8370 C   0  0  0  0  0  0  0  0  0  0  0  0
    3.5024   10.8574   23.5005 C   0  0  0  0  0  0  0  0  0  0  0  0
    2.1149   11.4433   23.5543 C   0  0  0  0  0  0  0  0  0  0  0  0
    1.6675   12.2555   22.5282 C   0  0  0  0  0  0  0  0  0  0  0  0
    0.3949   12.7944   22.5740 C   0  0  0  0  0  0  0  0  0  0  0  0
   -0.4332   12.5229   23.6465 C   0  0  0  0  0  0  0  0  0  0  0  0
    0.0134   11.7081   24.6767 C   0  0  0  0  0  0  0  0  0  0  0  0
    1.2888   11.1642   24.6263 C   0  0  0  0  0  0  0  0  0  0  0  0
   -0.7998   11.4391   25.7319 O   0  0  0  0  0  0  0  0  0  0  0  0
   -0.4541   10.3198   26.5494 C   0  0  0  0  0  0  0  0  0  0  0  0
  1  2  1  0  0  0  0
  1  5  1  0  0  0  0
  2  3  2  0  0  0  0
  2 17  1  0  0  0  0
  3  4  1  0  0  0  0
  4  5  2  0  0  0  0
  4  9  1  0  0  0  0
  5  6  1  0  0  0  0
  6  7  2  0  0  0  0
  7  8  1  0  0  0  0
  8  9  2  0  0  0  0
  9 10  1  0  0  0  0
 10 11  1  0  0  0  0
 10 12  1  0  0  0  0
 13  1  1  0  0  0  0
 14 15  1  0  0  0  0
 15 16  2  0  0  0  0
 16 13  1  0  0  0  0
 17 18  1  0  0  0  0
 18 19  2  0  0  0  0
 18 23  1  0  0  0  0
 19 20  1  0  0  0  0
 20 21  2  0  0  0  0
 21 22  1  0  0  0  0
 22 23  2  0  0  0  0
 22 24  1  0  0  0  0
 24 25  1  0  0  0  0
M  END
>  <minimizedAffinity>
-9.62996

$$$$
