ZINC03832017


 26 29  0  0  0  0  0  0  0  0999 V2000
    6.0987   11.8198   23.4691 N   0  0  0  0  0  0  0  0  0  0  0  0
    4.7609   11.7810   23.7281 C   0  0  0  0  0  0  0  0  0  0  0  0
    4.3931   12.8741   24.3324 N   0  0  0  0  0  0  0  0  0  0  0  0
    5.4664   13.6850   24.4895 C   0  0  0  0  0  0  0  0  0  0  0  0
    6.5742   13.0185   23.9382 C   0  0  0  0  0  0  0  0  0  0  0  0
    7.7634   13.6099   23.9664 N   0  0  0  0  0  0  0  0  0  0  0  0
    7.9065   14.8042   24.5038 C   0  0  0  0  0  0  0  0  0  0  0  0
    6.8963   15.4681   25.0337 N   0  0  0  0  0  0  0  0  0  0  0  0
    5.6697   14.9570   25.0508 C   0  0  0  0  0  0  0  0  0  0  0  0
    4.6170   15.6610   25.6098 N   0  0  0  0  0  0  0  0  0  0  0  0
    4.8102   15.8395   26.5748 H   0  0  0  0  0  0  0  0  0  0  0  0
    3.7264   15.2771   25.6166 H   0  0  0  0  0  0  0  0  0  0  0  0
    6.8841   10.7758   22.8057 C   0  0  0  0  0  0  0  0  0  0  0  0
    7.7783   10.0808   23.8338 C   0  0  0  0  0  0  0  0  0  0  0  0
    7.7856    7.6709   24.4956 C   0  0  0  0  0  0  0  0  0  0  0  0
    8.0839    8.6568   23.3638 C   0  0  0  0  0  0  0  0  0  0  0  0
    3.8443   10.6400   23.3707 C   0  0  0  0  0  0  0  0  0  0  0  0
    2.4111   11.0843   23.5102 C   0  0  0  0  0  0  0  0  0  0  0  0
    1.9388   12.1384   22.7503 C   0  0  0  0  0  0  0  0  0  0  0  0
    0.6248   12.5493   22.8744 C   0  0  0  0  0  0  0  0  0  0  0  0
   -0.2222   11.9063   23.7619 C   0  0  0  0  0  0  0  0  0  0  0  0
    0.2533   10.8448   24.5275 C   0  0  0  0  0  0  0  0  0  0  0  0
    1.5696   10.4341   24.3936 C   0  0  0  0  0  0  0  0  0  0  0  0
   -0.7627   10.3845   25.3154 O   0  0  0  0  0  0  0  0  0  0  0  0
   -1.9696   10.9071   24.7287 C   0  0  0  0  0  0  0  0  0  0  0  0
   -1.5367   12.1120   24.0700 O   0  0  0  0  0  0  0  0  0  0  0  0
 15 16  1  0  0  0
 16 14  1  0  0  0
 14 13  1  0  0  0
 13  1  1  0  0  0
  1  2  1  0  0  0
  1  5  1  0  0  0
  2  3  2  0  0  0
  2 17  1  0  0  0
  3  4  1  0  0  0
  4  5  2  0  0  0
  4  9  1  0  0  0
  5  6  1  0  0  0
  6  7  2  0  0  0
  7  8  1  0  0  0
  8  9  2  0  0  0
  9 10  1  0  0  0
 10 11  1  0  0  0
 10 12  1  0  0  0
 17 18  1  0  0  0
 18 19  2  0  0  0
 18 23  1  0  0  0
 19 20  1  0  0  0
 20 21  2  0  0  0
 21 22  1  0  0  0
 21 26  1  0  0  0
 22 23  2  0  0  0
 22 24  1  0  0  0
 24 25  1  0  0  0
 25 26  1  0  0  0
M  END
> <minimizedAffinity>
-9.90601

$$$$
ZINC03832017


 26 29  0  0  0  0  0  0  0  0999 V2000
    5.3283   11.7847   23.4240 N   0  0  0  0  0  0  0  0  0  0  0  0
    6.5375   11.2894   23.0356 C   0  0  0  0  0  0  0  0  0  0  0  0
    7.4879   12.1038   23.3949 N   0  0  0  0  0  0  0  0  0  0  0  0
    6.9509   13.1645   24.0435 C   0  0  0  0  0  0  0  0  0  0  0  0
    5.5586   12.9734   24.0698 C   0  0  0  0  0  0  0  0  0  0  0  0
    4.7925   13.8860   24.6572 N   0  0  0  0  0  0  0  0  0  0  0  0
    5.3266   14.9571   25.2077 C   0  0  0  0  0  0  0  0  0  0  0  0
    6.6275   15.1796   25.2075 N   0  0  0  0  0  0  0  0  0  0  0  0
    7.4727   14.3225   24.6444 C   0  0  0  0  0  0  0  0  0  0  0  0
    8.8355   14.5656   24.6487 N   0  0  0  0  0  0  0  0  0  0  0  0
    9.0224   15.4256   24.1735 H   0  0  0  0  0  0  0  0  0  0  0  0
    9.4421   13.9326   24.2341 H   0  0  0  0  0  0  0  0  0  0  0  0
    4.0224   11.1596   23.1989 C   0  0  0  0  0  0  0  0  0  0  0  0
    3.3898   10.8032   24.5452 C   0  0  0  0  0  0  0  0  0  0  0  0
    1.6801   12.2899   23.4904 C   0  0  0  0  0  0  0  0  0  0  0  0
    1.9099   11.1925   24.5320 C   0  0  0  0  0  0  0  0  0  0  0  0
    6.7431    9.9927   22.2965 C   0  0  0  0  0  0  0  0  0  0  0  0
    6.8400    8.8604   23.2861 C   0  0  0  0  0  0  0  0  0  0  0  0
    8.0399    8.6015   23.9225 C   0  0  0  0  0  0  0  0  0  0  0  0
    8.1337    7.5642   24.8314 C   0  0  0  0  0  0  0  0  0  0  0  0
    7.0252    6.7804   25.1063 C   0  0  0  0  0  0  0  0  0  0  0  0
    5.8168    7.0409   24.4653 C   0  0  0  0  0  0  0  0  0  0  0  0
    5.7282    8.0859   23.5602 C   0  0  0  0  0  0  0  0  0  0  0  0
    4.8876    6.1402   24.9017 O   0  0  0  0  0  0  0  0  0  0  0  0
    5.4301    5.5874   26.1157 C   0  0  0  0  0  0  0  0  0  0  0  0
    6.8539    5.7159   25.9446 O   0  0  0  0  0  0  0  0  0  0  0  0
 15 16  1  0  0  0
 16 14  1  0  0  0
 14 13  1  0  0  0
 13  1  1  0  0  0
  1  2  1  0  0  0
  1  5  1  0  0  0
  2  3  2  0  0  0
  2 17  1  0  0  0
  3  4  1  0  0  0
  4  5  2  0  0  0
  4  9  1  0  0  0
  5  6  1  0  0  0
  6  7  2  0  0  0
  7  8  1  0  0  0
  8  9  2  0  0  0
  9 10  1  0  0  0
 10 11  1  0  0  0
 10 12  1  0  0  0
 17 18  1  0  0  0
 18 19  2  0  0  0
 18 23  1  0  0  0
 19 20  1  0  0  0
 20 21  2  0  0  0
 21 22  1  0  0  0
 21 26  1  0  0  0
 22 23  2  0  0  0
 22 24  1  0  0  0
 24 25  1  0  0  0
 25 26  1  0  0  0
M  END
> <minimizedAffinity>
-9.61831

$$$$
ZINC03832017


 26 29  0  0  0  0  0  0  0  0999 V2000
    6.1232   11.7420   23.3787 N   0  0  0  0  0  0  0  0  0  0  0  0
    4.7745   11.6682   23.5626 C   0  0  0  0  0  0  0  0  0  0  0  0
    4.3502   12.7352   24.1765 N   0  0  0  0  0  0  0  0  0  0  0  0
    5.3953   13.5630   24.4153 C   0  0  0  0  0  0  0  0  0  0  0  0
    6.5459   12.9359   23.9070 C   0  0  0  0  0  0  0  0  0  0  0  0
    7.7184   13.5504   24.0173 N   0  0  0  0  0  0  0  0  0  0  0  0
    7.8057   14.7310   24.5954 C   0  0  0  0  0  0  0  0  0  0  0  0
    6.7538   15.3581   25.0875 N   0  0  0  0  0  0  0  0  0  0  0  0
    5.5396   14.8218   25.0228 C   0  0  0  0  0  0  0  0  0  0  0  0
    4.4429   15.4873   25.5427 N   0  0  0  0  0  0  0  0  0  0  0  0
    4.5793   15.6411   26.5215 H   0  0  0  0  0  0  0  0  0  0  0  0
    3.5619   15.0852   25.4897 H   0  0  0  0  0  0  0  0  0  0  0  0
    6.9663   10.7343   22.7302 C   0  0  0  0  0  0  0  0  0  0  0  0
    7.7672    9.9802   23.7930 C   0  0  0  0  0  0  0  0  0  0  0  0
    8.2880    7.5388   23.9118 C   0  0  0  0  0  0  0  0  0  0  0  0
    7.1719    8.5834   23.9840 C   0  0  0  0  0  0  0  0  0  0  0  0
    3.9040   10.5196   23.1231 C   0  0  0  0  0  0  0  0  0  0  0  0
    2.9237   10.1849   24.2175 C   0  0  0  0  0  0  0  0  0  0  0  0
    3.2910    9.3200   25.2317 C   0  0  0  0  0  0  0  0  0  0  0  0
    2.3954    9.0102   26.2380 C   0  0  0  0  0  0  0  0  0  0  0  0
    1.1264    9.5652   26.2323 C   0  0  0  0  0  0  0  0  0  0  0  0
    0.7561   10.4362   25.2108 C   0  0  0  0  0  0  0  0  0  0  0  0
    1.6607   10.7472   24.2088 C   0  0  0  0  0  0  0  0  0  0  0  0
   -0.5292   10.8434   25.4282 O   0  0  0  0  0  0  0  0  0  0  0  0
   -0.8008   10.5350   26.8084 C   0  0  0  0  0  0  0  0  0  0  0  0
    0.0730    9.4259   27.0902 O   0  0  0  0  0  0  0  0  0  0  0  0
 15 16  1  0  0  0
 16 14  1  0  0  0
 14 13  1  0  0  0
 13  1  1  0  0  0
  1  2  1  0  0  0
  1  5  1  0  0  0
  2  3  2  0  0  0
  2 17  1  0  0  0
  3  4  1  0  0  0
  4  5  2  0  0  0
  4  9  1  0  0  0
  5  6  1  0  0  0
  6  7  2  0  0  0
  7  8  1  0  0  0
  8  9  2  0  0  0
  9 10  1  0  0  0
 10 11  1  0  0  0
 10 12  1  0  0  0
 17 18  1  0  0  0
 18 19  2  0  0  0
 18 23  1  0  0  0
 19 20  1  0  0  0
 20 21  2  0  0  0
 21 22  1  0  0  0
 21 26  1  0  0  0
 22 23  2  0  0  0
 22 24  1  0  0  0
 24 25  1  0  0  0
 25 26  1  0  0  0
M  END
> <minimizedAffinity>
-9.61039

$$$$
