ZINC00068254
 OpenBabel07192215303D

 27 29  0  0  0  0  0  0  0  0999 V2000
    7.5921   14.7590   24.3471 C   0  0  2  0  0  0  0  0  0  0  0  0
    6.4794   15.0736   25.3517 C   0  0  0  0  0  0  0  0  0  0  0  0
    5.1280   14.6356   24.7854 C   0  0  0  0  0  0  0  0  0  0  0  0
    5.2299   13.1803   24.3427 C   0  0  0  0  0  0  0  0  0  0  0  0
    6.4310   12.6009   24.1312 C   0  0  0  0  0  0  0  0  0  0  0  0
    6.0537   10.9416   23.6429 S   0  0  0  0  0  0  0  0  0  0  0  0
    4.3242   11.0147   23.7184 C   0  0  0  0  0  0  0  0  0  0  0  0
    4.0804   12.3219   24.1193 C   0  0  0  0  0  0  0  0  0  0  0  0
    7.7794   13.2363   24.2788 C   0  0  0  0  0  0  0  0  0  0  0  0
    2.7129   12.8156   24.3100 C   0  0  0  0  0  0  0  0  0  0  0  0
    1.7952   12.0276   24.4485 O   0  0  0  0  0  0  0  0  0  0  0  0
    2.4717   14.1409   24.3320 N   0  0  0  0  0  0  0  0  0  0  0  0
    3.2023   14.7694   24.2219 H   0  0  0  0  0  0  0  0  0  0  0  0
    1.5666   14.4678   24.4577 H   0  0  0  0  0  0  0  0  0  0  0  0
    3.4067   10.0136   23.4449 N   0  0  0  0  0  0  0  0  0  0  0  0
    3.1181    9.0902   24.3842 C   0  0  0  0  0  0  0  0  0  0  0  0
    3.6629    9.1354   25.4691 O   0  0  0  0  0  0  0  0  0  0  0  0
    2.9714    9.9766   22.5794 H   0  0  0  0  0  0  0  0  0  0  0  0
    2.1375    8.0196   24.0924 C   0  0  0  0  0  0  0  0  0  0  0  0
    2.3754    7.0818   23.0819 C   0  0  0  0  0  0  0  0  0  0  0  0
    1.4357    6.0972   22.8470 C   0  0  0  0  0  0  0  0  0  0  0  0
    0.3232    6.0411   23.5516 N   0  0  0  0  0  0  0  0  0  0  0  0
    0.0564    6.9085   24.5084 C   0  0  0  0  0  0  0  0  0  0  0  0
    0.9432    7.9220   24.8146 C   0  0  0  0  0  0  0  0  0  0  0  0
    8.8957   15.4162   24.8038 C   0  0  0  0  0  0  0  0  0  0  0  0
   10.8450   14.7642   26.2254 C   0  0  0  0  0  0  0  0  0  0  0  0
    9.3177   14.8293   26.1522 C   0  0  0  0  0  0  0  0  0  0  0  0
  1 25  1  1  0  0  0
  1  2  1  0  0  0  0
  1  9  1  0  0  0  0
  2  3  1  0  0  0  0
  3  4  1  0  0  0  0
  4  5  2  0  0  0  0
  4  8  1  0  0  0  0
  5  6  1  0  0  0  0
  5  9  1  0  0  0  0
  6  7  1  0  0  0  0
  7  8  2  0  0  0  0
  7 15  1  0  0  0  0
  8 10  1  0  0  0  0
 10 11  2  0  0  0  0
 10 12  1  0  0  0  0
 12 13  1  0  0  0  0
 12 14  1  0  0  0  0
 15 16  1  0  0  0  0
 15 18  1  0  0  0  0
 16 17  2  0  0  0  0
 16 19  1  0  0  0  0
 19 20  2  0  0  0  0
 19 24  1  0  0  0  0
 20 21  1  0  0  0  0
 21 22  2  0  0  0  0
 22 23  1  0  0  0  0
 23 24  2  0  0  0  0
 26 27  1  0  0  0  0
 27 25  1  0  0  0  0
M  END
>  <minimizedAffinity>
-8.14645

$$$$
