ZINC00068253


 27 29  0  0  0  0  0  0  0  0999 V2000
    8.1208   14.6111   24.4855 C   0  0  0  0  0  0  0  0  0  0  0  0
    8.3438   13.1155   24.7275 C   0  0  0  0  0  0  0  0  0  0  0  0
    7.3395   12.3016   23.9101 C   0  0  0  0  0  0  0  0  0  0  0  0
    5.9363   12.8177   24.2021 C   0  0  0  0  0  0  0  0  0  0  0  0
    5.7444   14.0367   24.7524 C   0  0  0  0  0  0  0  0  0  0  0  0
    3.9875   14.1942   24.9019 S   0  0  0  0  0  0  0  0  0  0  0  0
    3.5123   12.6628   24.2426 C   0  0  0  0  0  0  0  0  0  0  0  0
    4.7241   12.0665   23.9227 C   0  0  0  0  0  0  0  0  0  0  0  0
    6.7974   15.0267   25.1439 C   0  0  0  0  0  0  0  0  0  0  0  0
    4.7786   10.7318   23.3203 C   0  0  0  0  0  0  0  0  0  0  0  0
    4.0349   10.4485   22.3993 O   0  0  0  0  0  0  0  0  0  0  0  0
    5.6516    9.8169   23.7857 N   0  0  0  0  0  0  0  0  0  0  0  0
    6.2444   10.0421   24.5207 H   0  0  0  0  0  0  0  0  0  0  0  0
    5.6883    8.9332   23.3872 H   0  0  0  0  0  0  0  0  0  0  0  0
    2.2329   12.1575   24.0756 N   0  0  0  0  0  0  0  0  0  0  0  0
    1.2215   12.9815   23.7392 C   0  0  0  0  0  0  0  0  0  0  0  0
    1.4313   14.1677   23.5807 O   0  0  0  0  0  0  0  0  0  0  0  0
    2.0657   11.2102   24.2021 H   0  0  0  0  0  0  0  0  0  0  0  0
   -0.1456   12.4406   23.5606 C   0  0  0  0  0  0  0  0  0  0  0  0
   -0.6984   11.5611   24.4969 C   0  0  0  0  0  0  0  0  0  0  0  0
   -1.9798   11.0864   24.2934 C   0  0  0  0  0  0  0  0  0  0  0  0
   -2.6737   11.4432   23.2315 N   0  0  0  0  0  0  0  0  0  0  0  0
   -2.1884   12.2651   22.3225 C   0  0  0  0  0  0  0  0  0  0  0  0
   -0.9180   12.7921   22.4492 C   0  0  0  0  0  0  0  0  0  0  0  0
    9.2727   15.4077   25.1022 C   0  0  0  0  0  0  0  0  0  0  0  0
   11.1890   14.7673   26.5719 C   0  0  0  0  0  0  0  0  0  0  0  0
    9.6642   14.7831   26.4427 C   0  0  0  0  0  0  0  0  0  0  0  0
 26 27  1  0  0  0
 27 25  1  0  0  0
  1 25  1  0  0  0
  1  2  1  0  0  0
  1  9  1  0  0  0
  2  3  1  0  0  0
  3  4  1  0  0  0
  4  5  2  0  0  0
  4  8  1  0  0  0
  5  6  1  0  0  0
  5  9  1  0  0  0
  6  7  1  0  0  0
  7  8  2  0  0  0
  7 15  1  0  0  0
  8 10  1  0  0  0
 10 11  2  0  0  0
 10 12  1  0  0  0
 12 13  1  0  0  0
 12 14  1  0  0  0
 15 16  1  0  0  0
 15 18  1  0  0  0
 16 17  2  0  0  0
 16 19  1  0  0  0
 19 20  2  0  0  0
 19 24  1  0  0  0
 20 21  1  0  0  0
 21 22  2  0  0  0
 22 23  1  0  0  0
 23 24  2  0  0  0
M  END
> <minimizedAffinity>
-8.88558

$$$$
ZINC00068253


 27 29  0  0  0  0  0  0  0  0999 V2000
    7.8244   14.4756   25.2337 C   0  0  0  0  0  0  0  0  0  0  0  0
    6.5883   15.2535   24.7735 C   0  0  0  0  0  0  0  0  0  0  0  0
    5.3311   14.4126   24.9999 C   0  0  0  0  0  0  0  0  0  0  0  0
    5.5317   13.0467   24.3558 C   0  0  0  0  0  0  0  0  0  0  0  0
    6.7682   12.5999   24.0444 C   0  0  0  0  0  0  0  0  0  0  0  0
    6.5052   11.0007   23.3318 S   0  0  0  0  0  0  0  0  0  0  0  0
    4.7769   10.9247   23.4455 C   0  0  0  0  0  0  0  0  0  0  0  0
    4.4448   12.1381   24.0318 C   0  0  0  0  0  0  0  0  0  0  0  0
    8.0672   13.3124   24.2611 C   0  0  0  0  0  0  0  0  0  0  0  0
    3.0509   12.4871   24.3188 C   0  0  0  0  0  0  0  0  0  0  0  0
    2.2873   11.6418   24.7476 O   0  0  0  0  0  0  0  0  0  0  0  0
    2.6131   13.7440   24.1078 N   0  0  0  0  0  0  0  0  0  0  0  0
    3.2216   14.4183   23.7652 H   0  0  0  0  0  0  0  0  0  0  0  0
    1.6905   13.9757   24.2977 H   0  0  0  0  0  0  0  0  0  0  0  0
    3.9326    9.9006   23.0476 N   0  0  0  0  0  0  0  0  0  0  0  0
    3.9236    8.7342   23.7218 C   0  0  0  0  0  0  0  0  0  0  0  0
    4.6549    8.5806   24.6799 O   0  0  0  0  0  0  0  0  0  0  0  0
    3.3486   10.0236   22.2827 H   0  0  0  0  0  0  0  0  0  0  0  0
    3.0207    7.6402   23.2961 C   0  0  0  0  0  0  0  0  0  0  0  0
    1.7083    7.5649   23.7733 C   0  0  0  0  0  0  0  0  0  0  0  0
    0.8988    6.5307   23.3444 C   0  0  0  0  0  0  0  0  0  0  0  0
    1.3511    5.6193   22.5069 N   0  0  0  0  0  0  0  0  0  0  0  0
    2.5824    5.6501   22.0375 C   0  0  0  0  0  0  0  0  0  0  0  0
    3.4578    6.6517   22.4089 C   0  0  0  0  0  0  0  0  0  0  0  0
    9.0417   15.4028   25.2382 C   0  0  0  0  0  0  0  0  0  0  0  0
   11.1986   14.5328   26.1509 C   0  0  0  0  0  0  0  0  0  0  0  0
    9.8552   15.1699   26.5128 C   0  0  0  0  0  0  0  0  0  0  0  0
 26 27  1  0  0  0
 27 25  1  0  0  0
  1 25  1  0  0  0
  1  2  1  0  0  0
  1  9  1  0  0  0
  2  3  1  0  0  0
  3  4  1  0  0  0
  4  5  2  0  0  0
  4  8  1  0  0  0
  5  6  1  0  0  0
  5  9  1  0  0  0
  6  7  1  0  0  0
  7  8  2  0  0  0
  7 15  1  0  0  0
  8 10  1  0  0  0
 10 11  2  0  0  0
 10 12  1  0  0  0
 12 13  1  0  0  0
 12 14  1  0  0  0
 15 16  1  0  0  0
 15 18  1  0  0  0
 16 17  2  0  0  0
 16 19  1  0  0  0
 19 20  2  0  0  0
 19 24  1  0  0  0
 20 21  1  0  0  0
 21 22  2  0  0  0
 22 23  1  0  0  0
 23 24  2  0  0  0
M  END
> <minimizedAffinity>
-7.92686

$$$$
ZINC00068253


 27 29  0  0  0  0  0  0  0  0999 V2000
    1.0727   12.6842   24.0716 C   0  0  0  0  0  0  0  0  0  0  0  0
    1.7030   11.9505   22.8845 C   0  0  0  0  0  0  0  0  0  0  0  0
    3.0624   11.3786   23.2896 C   0  0  0  0  0  0  0  0  0  0  0  0
    3.9016   12.4937   23.9004 C   0  0  0  0  0  0  0  0  0  0  0  0
    3.3257   13.6294   24.3522 C   0  0  0  0  0  0  0  0  0  0  0  0
    4.6703   14.6080   24.9593 S   0  0  0  0  0  0  0  0  0  0  0  0
    5.9805   13.5249   24.6188 C   0  0  0  0  0  0  0  0  0  0  0  0
    5.3464   12.4324   24.0437 C   0  0  0  0  0  0  0  0  0  0  0  0
    1.8678   13.9707   24.3367 C   0  0  0  0  0  0  0  0  0  0  0  0
    6.1051   11.2587   23.6030 C   0  0  0  0  0  0  0  0  0  0  0  0
    7.0803   11.3972   22.8879 O   0  0  0  0  0  0  0  0  0  0  0  0
    5.7236   10.0252   23.9889 N   0  0  0  0  0  0  0  0  0  0  0  0
    4.9456    9.9143   24.5587 H   0  0  0  0  0  0  0  0  0  0  0  0
    6.2255    9.2479   23.6976 H   0  0  0  0  0  0  0  0  0  0  0  0
    7.3325   13.7065   24.8622 N   0  0  0  0  0  0  0  0  0  0  0  0
    7.7393   14.2783   26.0123 C   0  0  0  0  0  0  0  0  0  0  0  0
    6.9207   14.6335   26.8370 O   0  0  0  0  0  0  0  0  0  0  0  0
    7.9859   13.4226   24.2036 H   0  0  0  0  0  0  0  0  0  0  0  0
    9.1845   14.4717   26.2720 C   0  0  0  0  0  0  0  0  0  0  0  0
    9.7752   13.9874   27.4434 C   0  0  0  0  0  0  0  0  0  0  0  0
   11.1282   14.1848   27.6413 C   0  0  0  0  0  0  0  0  0  0  0  0
   11.8564   14.8270   26.7503 N   0  0  0  0  0  0  0  0  0  0  0  0
   11.3384   15.3041   25.6361 C   0  0  0  0  0  0  0  0  0  0  0  0
    9.9955   15.1469   25.3545 C   0  0  0  0  0  0  0  0  0  0  0  0
   -0.3797   13.0376   23.7436 C   0  0  0  0  0  0  0  0  0  0  0  0
   -1.2701   11.0743   25.0066 C   0  0  0  0  0  0  0  0  0  0  0  0
   -1.2050   11.7538   23.6370 C   0  0  0  0  0  0  0  0  0  0  0  0
 26 27  1  0  0  0
 27 25  1  0  0  0
  1 25  1  0  0  0
  1  2  1  0  0  0
  1  9  1  0  0  0
  2  3  1  0  0  0
  3  4  1  0  0  0
  4  5  2  0  0  0
  4  8  1  0  0  0
  5  6  1  0  0  0
  5  9  1  0  0  0
  6  7  1  0  0  0
  7  8  2  0  0  0
  7 15  1  0  0  0
  8 10  1  0  0  0
 10 11  2  0  0  0
 10 12  1  0  0  0
 12 13  1  0  0  0
 12 14  1  0  0  0
 15 16  1  0  0  0
 15 18  1  0  0  0
 16 17  2  0  0  0
 16 19  1  0  0  0
 19 20  2  0  0  0
 19 24  1  0  0  0
 20 21  1  0  0  0
 21 22  2  0  0  0
 22 23  1  0  0  0
 23 24  2  0  0  0
M  END
> <minimizedAffinity>
-7.03920

$$$$
