ZINC00086200
 OpenBabel07192215303D

 26 27  0  0  0  0  0  0  0  0999 V2000
    5.3841   11.3848   23.2772 C   0  0  0  0  0  0  0  0  0  0  0  0
    6.6604   11.9155   23.4225 C   0  0  0  0  0  0  0  0  0  0  0  0
    6.8364   13.1268   24.0570 C   0  0  0  0  0  0  0  0  0  0  0  0
    5.7466   13.8243   24.5540 C   0  0  0  0  0  0  0  0  0  0  0  0
    4.4738   13.3161   24.4191 C   0  0  0  0  0  0  0  0  0  0  0  0
    4.2767   12.0916   23.7745 C   0  0  0  0  0  0  0  0  0  0  0  0
    2.9170   11.5442   23.6201 C   0  0  0  0  0  0  0  0  0  0  0  0
    2.3401   11.6408   22.5548 O   0  0  0  0  0  0  0  0  0  0  0  0
    2.3145   10.9346   24.6603 N   0  0  0  0  0  0  0  0  0  0  0  0
    0.9630   10.3892   24.5075 C   0  0  0  0  0  0  0  0  0  0  0  0
    2.7752   10.8580   25.5107 H   0  0  0  0  0  0  0  0  0  0  0  0
    5.9512   15.1246   25.2324 N   0  0  0  0  0  0  0  0  0  0  0  0
    6.9814   15.3341   25.8481 O   0  0  0  0  0  0  0  0  0  0  0  0
    5.0900   15.9843   25.1747 O   0  0  0  0  0  0  0  0  0  0  0  0
    5.1544    9.8373   22.4667 S   0  0  0  0  0  0  0  0  0  0  0  0
    5.4906    7.7354   24.2082 C   0  0  0  0  0  0  0  0  0  0  0  0
    6.2676    6.8453   24.9536 C   0  0  0  0  0  0  0  0  0  0  0  0
    7.6419    6.9284   24.9081 C   0  0  0  0  0  0  0  0  0  0  0  0
    8.2607    7.8928   24.1270 C   0  0  0  0  0  0  0  0  0  0  0  0
    7.5074    8.7796   23.3852 C   0  0  0  0  0  0  0  0  0  0  0  0
    6.1193    8.7106   23.4176 C   0  0  0  0  0  0  0  0  0  0  0  0
    1.8968    6.8292   23.3837 C   0  0  0  0  0  0  0  0  0  0  0  0
    3.3588    6.9123   23.3398 N   0  0  0  0  0  0  0  0  0  0  0  0
    4.0191    7.6522   24.2523 C   0  0  0  0  0  0  0  0  0  0  0  0
    3.4019    8.2516   25.1124 O   0  0  0  0  0  0  0  0  0  0  0  0
    3.8511    6.4342   22.6547 H   0  0  0  0  0  0  0  0  0  0  0  0
  1  2  2  0  0  0  0
  1  6  1  0  0  0  0
  2  3  1  0  0  0  0
  3  4  2  0  0  0  0
  4  5  1  0  0  0  0
  4 12  1  0  0  0  0
  5  6  2  0  0  0  0
  6  7  1  0  0  0  0
  7  8  2  0  0  0  0
  7  9  1  0  0  0  0
  9 10  1  0  0  0  0
  9 11  1  0  0  0  0
 12 13  2  0  0  0  0
 12 14  2  0  0  0  0
 15  1  1  0  0  0  0
 16 17  2  0  0  0  0
 16 21  1  0  0  0  0
 17 18  1  0  0  0  0
 18 19  2  0  0  0  0
 19 20  1  0  0  0  0
 20 21  2  0  0  0  0
 21 15  1  0  0  0  0
 22 23  1  0  0  0  0
 23 24  1  0  0  0  0
 23 26  1  0  0  0  0
 24 25  2  0  0  0  0
 24 16  1  0  0  0  0
M  END
>  <minimizedAffinity>
-7.72379

$$$$
