ZINC00068253
 OpenBabel07192215303D

 27 29  0  0  0  0  0  0  0  0999 V2000
    8.1208   14.6111   24.4855 C   0  0  1  0  0  0  0  0  0  0  0  0
    8.3438   13.1155   24.7275 C   0  0  0  0  0  0  0  0  0  0  0  0
    7.3395   12.3016   23.9101 C   0  0  0  0  0  0  0  0  0  0  0  0
    5.9363   12.8177   24.2021 C   0  0  0  0  0  0  0  0  0  0  0  0
    5.7444   14.0367   24.7524 C   0  0  0  0  0  0  0  0  0  0  0  0
    3.9875   14.1942   24.9019 S   0  0  0  0  0  0  0  0  0  0  0  0
    3.5123   12.6628   24.2426 C   0  0  0  0  0  0  0  0  0  0  0  0
    4.7241   12.0665   23.9227 C   0  0  0  0  0  0  0  0  0  0  0  0
    6.7974   15.0267   25.1439 C   0  0  0  0  0  0  0  0  0  0  0  0
    4.7786   10.7318   23.3203 C   0  0  0  0  0  0  0  0  0  0  0  0
    4.0349   10.4485   22.3993 O   0  0  0  0  0  0  0  0  0  0  0  0
    5.6516    9.8169   23.7857 N   0  0  0  0  0  0  0  0  0  0  0  0
    6.2444   10.0421   24.5207 H   0  0  0  0  0  0  0  0  0  0  0  0
    5.6883    8.9332   23.3872 H   0  0  0  0  0  0  0  0  0  0  0  0
    2.2329   12.1575   24.0756 N   0  0  0  0  0  0  0  0  0  0  0  0
    1.2215   12.9815   23.7392 C   0  0  0  0  0  0  0  0  0  0  0  0
    1.4313   14.1677   23.5807 O   0  0  0  0  0  0  0  0  0  0  0  0
    2.0657   11.2102   24.2021 H   0  0  0  0  0  0  0  0  0  0  0  0
   -0.1456   12.4406   23.5606 C   0  0  0  0  0  0  0  0  0  0  0  0
   -0.6984   11.5611   24.4969 C   0  0  0  0  0  0  0  0  0  0  0  0
   -1.9798   11.0864   24.2934 C   0  0  0  0  0  0  0  0  0  0  0  0
   -2.6737   11.4432   23.2315 N   0  0  0  0  0  0  0  0  0  0  0  0
   -2.1884   12.2651   22.3225 C   0  0  0  0  0  0  0  0  0  0  0  0
   -0.9180   12.7921   22.4492 C   0  0  0  0  0  0  0  0  0  0  0  0
    9.2727   15.4077   25.1022 C   0  0  0  0  0  0  0  0  0  0  0  0
   11.1890   14.7673   26.5719 C   0  0  0  0  0  0  0  0  0  0  0  0
    9.6642   14.7831   26.4427 C   0  0  0  0  0  0  0  0  0  0  0  0
  1 25  1  1  0  0  0
  1  2  1  0  0  0  0
  1  9  1  0  0  0  0
  2  3  1  0  0  0  0
  3  4  1  0  0  0  0
  4  5  2  0  0  0  0
  4  8  1  0  0  0  0
  5  6  1  0  0  0  0
  5  9  1  0  0  0  0
  6  7  1  0  0  0  0
  7  8  2  0  0  0  0
  7 15  1  0  0  0  0
  8 10  1  0  0  0  0
 10 11  2  0  0  0  0
 10 12  1  0  0  0  0
 12 13  1  0  0  0  0
 12 14  1  0  0  0  0
 15 16  1  0  0  0  0
 15 18  1  0  0  0  0
 16 17  2  0  0  0  0
 16 19  1  0  0  0  0
 19 20  2  0  0  0  0
 19 24  1  0  0  0  0
 20 21  1  0  0  0  0
 21 22  2  0  0  0  0
 22 23  1  0  0  0  0
 23 24  2  0  0  0  0
 26 27  1  0  0  0  0
 27 25  1  0  0  0  0
M  END
>  <minimizedAffinity>
-8.88558

$$$$
