ZINC00086200


 26 27  0  0  0  0  0  0  0  0999 V2000
    5.3841   11.3848   23.2772 C   0  0  0  0  0  0  0  0  0  0  0  0
    6.6604   11.9155   23.4225 C   0  0  0  0  0  0  0  0  0  0  0  0
    6.8364   13.1268   24.0570 C   0  0  0  0  0  0  0  0  0  0  0  0
    5.7466   13.8243   24.5540 C   0  0  0  0  0  0  0  0  0  0  0  0
    4.4738   13.3161   24.4191 C   0  0  0  0  0  0  0  0  0  0  0  0
    4.2767   12.0916   23.7745 C   0  0  0  0  0  0  0  0  0  0  0  0
    2.9170   11.5442   23.6201 C   0  0  0  0  0  0  0  0  0  0  0  0
    2.3401   11.6408   22.5548 O   0  0  0  0  0  0  0  0  0  0  0  0
    2.3145   10.9346   24.6603 N   0  0  0  0  0  0  0  0  0  0  0  0
    0.9630   10.3892   24.5075 C   0  0  0  0  0  0  0  0  0  0  0  0
    2.7752   10.8580   25.5107 H   0  0  0  0  0  0  0  0  0  0  0  0
    5.9512   15.1246   25.2324 N   0  0  0  0  0  0  0  0  0  0  0  0
    6.9814   15.3341   25.8481 O   0  0  0  0  0  0  0  0  0  0  0  0
    5.0900   15.9843   25.1747 O   0  0  0  0  0  0  0  0  0  0  0  0
    5.1544    9.8373   22.4667 S   0  0  0  0  0  0  0  0  0  0  0  0
    5.4906    7.7354   24.2082 C   0  0  0  0  0  0  0  0  0  0  0  0
    6.2676    6.8453   24.9536 C   0  0  0  0  0  0  0  0  0  0  0  0
    7.6419    6.9284   24.9081 C   0  0  0  0  0  0  0  0  0  0  0  0
    8.2607    7.8928   24.1270 C   0  0  0  0  0  0  0  0  0  0  0  0
    7.5074    8.7796   23.3852 C   0  0  0  0  0  0  0  0  0  0  0  0
    6.1193    8.7106   23.4176 C   0  0  0  0  0  0  0  0  0  0  0  0
    1.8968    6.8292   23.3837 C   0  0  0  0  0  0  0  0  0  0  0  0
    3.3588    6.9123   23.3398 N   0  0  0  0  0  0  0  0  0  0  0  0
    4.0191    7.6522   24.2523 C   0  0  0  0  0  0  0  0  0  0  0  0
    3.4019    8.2516   25.1124 O   0  0  0  0  0  0  0  0  0  0  0  0
    3.8511    6.4342   22.6547 H   0  0  0  0  0  0  0  0  0  0  0  0
 22 23  1  0  0  0
 23 24  1  0  0  0
 23 26  1  0  0  0
 24 25  2  0  0  0
 24 16  1  0  0  0
 16 17  2  0  0  0
 16 21  1  0  0  0
 17 18  1  0  0  0
 18 19  2  0  0  0
 19 20  1  0  0  0
 20 21  2  0  0  0
 21 15  1  0  0  0
 15  1  1  0  0  0
  1  2  2  0  0  0
  1  6  1  0  0  0
  2  3  1  0  0  0
  3  4  2  0  0  0
  4  5  1  0  0  0
  4 12  1  0  0  0
  5  6  2  0  0  0
  6  7  1  0  0  0
  7  8  2  0  0  0
  7  9  1  0  0  0
  9 10  1  0  0  0
  9 11  1  0  0  0
 12 13  2  0  0  0
 12 14  2  0  0  0
M  END
> <minimizedAffinity>
-7.72379

$$$$
ZINC00086200


 26 27  0  0  0  0  0  0  0  0999 V2000
    0.8023   11.6200   23.5909 C   0  0  0  0  0  0  0  0  0  0  0  0
    1.0044   12.4056   22.4623 C   0  0  0  0  0  0  0  0  0  0  0  0
   -0.0689   13.0001   21.8335 C   0  0  0  0  0  0  0  0  0  0  0  0
   -1.3548   12.8206   22.3187 C   0  0  0  0  0  0  0  0  0  0  0  0
   -1.5762   12.0450   23.4349 C   0  0  0  0  0  0  0  0  0  0  0  0
   -0.5001   11.4311   24.0821 C   0  0  0  0  0  0  0  0  0  0  0  0
   -0.7295   10.5940   25.2731 C   0  0  0  0  0  0  0  0  0  0  0  0
   -0.7589    9.3835   25.1690 O   0  0  0  0  0  0  0  0  0  0  0  0
   -0.9049   11.1715   26.4784 N   0  0  0  0  0  0  0  0  0  0  0  0
   -1.1321   10.3399   27.6634 C   0  0  0  0  0  0  0  0  0  0  0  0
   -0.8818   12.1379   26.5611 H   0  0  0  0  0  0  0  0  0  0  0  0
   -2.4978   13.4648   21.6322 N   0  0  0  0  0  0  0  0  0  0  0  0
   -2.3982   13.7948   20.4637 O   0  0  0  0  0  0  0  0  0  0  0  0
   -3.5372   13.6645   22.2355 O   0  0  0  0  0  0  0  0  0  0  0  0
    2.1709   10.8580   24.3974 S   0  0  0  0  0  0  0  0  0  0  0  0
    4.7113   11.8124   23.9506 C   0  0  0  0  0  0  0  0  0  0  0  0
    5.6861   12.8131   23.9530 C   0  0  0  0  0  0  0  0  0  0  0  0
    5.3697   14.0795   24.3930 C   0  0  0  0  0  0  0  0  0  0  0  0
    4.0878   14.3680   24.8363 C   0  0  0  0  0  0  0  0  0  0  0  0
    3.1138   13.3905   24.8406 C   0  0  0  0  0  0  0  0  0  0  0  0
    3.4139   12.1070   24.3993 C   0  0  0  0  0  0  0  0  0  0  0  0
    4.9157    8.6750   21.8218 C   0  0  0  0  0  0  0  0  0  0  0  0
    4.5858   10.0239   22.2888 N   0  0  0  0  0  0  0  0  0  0  0  0
    5.0431   10.4546   23.4810 C   0  0  0  0  0  0  0  0  0  0  0  0
    5.7295    9.7238   24.1702 O   0  0  0  0  0  0  0  0  0  0  0  0
    4.0392   10.6068   21.7395 H   0  0  0  0  0  0  0  0  0  0  0  0
 22 23  1  0  0  0
 23 24  1  0  0  0
 23 26  1  0  0  0
 24 25  2  0  0  0
 24 16  1  0  0  0
 16 17  2  0  0  0
 16 21  1  0  0  0
 17 18  1  0  0  0
 18 19  2  0  0  0
 19 20  1  0  0  0
 20 21  2  0  0  0
 21 15  1  0  0  0
 15  1  1  0  0  0
  1  2  2  0  0  0
  1  6  1  0  0  0
  2  3  1  0  0  0
  3  4  2  0  0  0
  4  5  1  0  0  0
  4 12  1  0  0  0
  5  6  2  0  0  0
  6  7  1  0  0  0
  7  8  2  0  0  0
  7  9  1  0  0  0
  9 10  1  0  0  0
  9 11  1  0  0  0
 12 13  2  0  0  0
 12 14  2  0  0  0
M  END
> <minimizedAffinity>
-7.59538

$$$$
ZINC00086200


 26 27  0  0  0  0  0  0  0  0999 V2000
    2.3813   11.5406   23.5706 C   0  0  0  0  0  0  0  0  0  0  0  0
    2.0095   12.6406   22.8066 C   0  0  0  0  0  0  0  0  0  0  0  0
    0.6752   12.9109   22.5889 C   0  0  0  0  0  0  0  0  0  0  0  0
   -0.3045   12.0914   23.1276 C   0  0  0  0  0  0  0  0  0  0  0  0
    0.0433   10.9961   23.8863 C   0  0  0  0  0  0  0  0  0  0  0  0
    1.3915   10.7047   24.1132 C   0  0  0  0  0  0  0  0  0  0  0  0
    1.7719    9.5304   24.9185 C   0  0  0  0  0  0  0  0  0  0  0  0
    1.9966    8.4671   24.3745 O   0  0  0  0  0  0  0  0  0  0  0  0
    1.8725    9.6367   26.2584 N   0  0  0  0  0  0  0  0  0  0  0  0
    2.2517    8.4700   27.0598 C   0  0  0  0  0  0  0  0  0  0  0  0
    1.6927   10.4856   26.6924 H   0  0  0  0  0  0  0  0  0  0  0  0
   -1.7335   12.3939   22.8844 N   0  0  0  0  0  0  0  0  0  0  0  0
   -2.2974   13.2439   23.5504 O   0  0  0  0  0  0  0  0  0  0  0  0
   -2.3449   11.7931   22.0187 O   0  0  0  0  0  0  0  0  0  0  0  0
    4.0853   11.1912   23.8511 S   0  0  0  0  0  0  0  0  0  0  0  0
    6.1488   12.9886   24.1253 C   0  0  0  0  0  0  0  0  0  0  0  0
    6.6814   14.2329   24.4716 C   0  0  0  0  0  0  0  0  0  0  0  0
    5.8575   15.2186   24.9687 C   0  0  0  0  0  0  0  0  0  0  0  0
    4.5004   14.9833   25.1296 C   0  0  0  0  0  0  0  0  0  0  0  0
    3.9590   13.7596   24.7925 C   0  0  0  0  0  0  0  0  0  0  0  0
    4.7743   12.7528   24.2885 C   0  0  0  0  0  0  0  0  0  0  0  0
    7.4718   10.1002   22.0460 C   0  0  0  0  0  0  0  0  0  0  0  0
    6.6014   11.1530   22.5755 N   0  0  0  0  0  0  0  0  0  0  0  0
    7.0249   11.9289   23.5928 C   0  0  0  0  0  0  0  0  0  0  0  0
    8.1295   11.7553   24.0721 O   0  0  0  0  0  0  0  0  0  0  0  0
    5.7211   11.2920   22.1933 H   0  0  0  0  0  0  0  0  0  0  0  0
 22 23  1  0  0  0
 23 24  1  0  0  0
 23 26  1  0  0  0
 24 25  2  0  0  0
 24 16  1  0  0  0
 16 17  2  0  0  0
 16 21  1  0  0  0
 17 18  1  0  0  0
 18 19  2  0  0  0
 19 20  1  0  0  0
 20 21  2  0  0  0
 21 15  1  0  0  0
 15  1  1  0  0  0
  1  2  2  0  0  0
  1  6  1  0  0  0
  2  3  1  0  0  0
  3  4  2  0  0  0
  4  5  1  0  0  0
  4 12  1  0  0  0
  5  6  2  0  0  0
  6  7  1  0  0  0
  7  8  2  0  0  0
  7  9  1  0  0  0
  9 10  1  0  0  0
  9 11  1  0  0  0
 12 13  2  0  0  0
 12 14  2  0  0  0
M  END
> <minimizedAffinity>
-7.42827

$$$$
