ZINC03833892
 OpenBabel07192215303D

 36 38  0  0  0  0  0  0  0  0999 V2000
    2.3252   10.1074   23.7219 C   0  0  0  0  0  0  0  0  0  0  0  0
    2.8449    8.9359   23.3433 N   0  0  0  0  0  0  0  0  0  0  0  0
    2.2868    8.0017   24.3305 C   0  0  2  0  0  0  0  0  0  0  0  0
    2.1015    6.5520   23.9323 C   0  0  1  0  0  0  0  0  0  0  0  0
    0.2693    6.5255   25.7608 C   0  0  0  0  0  0  0  0  0  0  0  0
    0.9418    8.5960   24.6918 C   0  0  2  0  0  0  0  0  0  0  0  0
    1.3393    9.9655   24.7411 N   0  0  0  0  0  0  0  0  0  0  0  0
    0.4735    6.5743   22.4561 H   0  0  0  0  0  0  0  0  0  0  0  0
    1.9605    7.0373   21.9574 H   0  0  0  0  0  0  0  0  0  0  0  0
    1.3919    5.8577   25.0503 N   0  3  0  0  0  0  0  0  0  0  0  0
    2.1115    5.6529   25.7721 H   0  0  0  0  0  0  0  0  0  0  0  0
    1.1096    4.8943   24.7934 H   0  0  0  0  0  0  0  0  0  0  0  0
    0.4950    7.9673   25.9213 N   0  3  0  0  0  0  0  0  0  0  0  0
   -0.3999    8.4075   26.2026 H   0  0  0  0  0  0  0  0  0  0  0  0
    1.1202    8.2133   26.7076 H   0  0  0  0  0  0  0  0  0  0  0  0
    1.4754    6.3820   22.6140 N   0  3  0  0  0  0  0  0  0  0  0  0
    1.6728    5.4634   22.1740 H   0  0  0  0  0  0  0  0  0  0  0  0
    2.8796   11.4381   23.2012 C   0  0  0  0  0  0  0  0  0  0  0  0
    6.5471   12.2507   23.8256 C   0  0  0  0  0  0  0  0  0  0  0  0
    5.3082   11.6008   23.6569 C   0  0  0  0  0  0  0  0  0  0  0  0
    4.0411   12.2462   23.7889 C   0  0  0  0  0  0  0  0  0  0  0  0
    4.0662   13.5495   24.2977 C   0  0  0  0  0  0  0  0  0  0  0  0
    5.3072   14.1825   24.5908 C   0  0  0  0  0  0  0  0  0  0  0  0
    6.5504   13.5814   24.2663 C   0  0  0  0  0  0  0  0  0  0  0  0
    2.5880   14.4278   24.5712 Cl  0  0  0  0  0  0  0  0  0  0  0  0
    7.9265   10.2566   23.4451 C   0  0  0  0  0  0  0  0  0  0  0  0
    7.7519   11.6581   23.5942 O   0  0  0  0  0  0  0  0  0  0  0  0
    7.6464   14.3951   24.4381 O   0  0  0  0  0  0  0  0  0  0  0  0
    8.4853   14.2593   25.5847 C   0  0  0  0  0  0  0  0  0  0  0  0
    5.3403   15.4658   25.1061 O   0  0  0  0  0  0  0  0  0  0  0  0
    4.9597   15.5115   26.4841 C   0  0  0  0  0  0  0  0  0  0  0  0
    0.3702   10.9992   25.1217 C   0  0  0  0  0  0  0  0  0  0  0  0
   -0.9643   10.7429   24.4037 C   0  0  0  0  0  0  0  0  0  0  0  0
   -1.5819   12.0101   23.8142 C   0  0  0  0  0  0  0  0  0  0  0  0
   -0.8258   12.4757   22.6358 C   0  0  0  0  0  0  0  0  0  0  0  0
   -0.2603   12.8337   21.6426 C   0  0  0  0  0  0  0  0  0  0  0  0
  1  2  2  0  0  0  0
  1  7  1  0  0  0  0
  3  2  1  6  0  0  0
  3  4  1  0  0  0  0
  3  6  1  0  0  0  0
  4 10  1  0  0  0  0
  4 16  1  6  0  0  0
  5 10  1  0  0  0  0
  5 13  1  0  0  0  0
  6  7  1  1  0  0  0
  6 13  1  0  0  0  0
  7 32  1  0  0  0  0
  8 16  1  0  0  0  0
  9 16  1  0  0  0  0
 10 11  1  0  0  0  0
 10 12  1  0  0  0  0
 13 14  1  0  0  0  0
 13 15  1  0  0  0  0
 16 17  1  0  0  0  0
 18  1  1  0  0  0  0
 19 20  2  0  0  0  0
 19 24  1  0  0  0  0
 20 21  1  0  0  0  0
 21 22  2  0  0  0  0
 21 18  1  0  0  0  0
 22 23  1  0  0  0  0
 22 25  1  0  0  0  0
 23 24  2  0  0  0  0
 23 30  1  0  0  0  0
 24 28  1  0  0  0  0
 26 27  1  0  0  0  0
 27 19  1  0  0  0  0
 28 29  1  0  0  0  0
 30 31  1  0  0  0  0
 32 33  1  0  0  0  0
 33 34  1  0  0  0  0
 34 35  1  0  0  0  0
 35 36  3  0  0  0  0
M  CHG  3  10   1  13   1  16   1
M  END
>  <minimizedAffinity>
-8.64322

$$$$
