data/FXA/cocry_dataset/1f0r_815_LIG.pdb
 OpenBabel03092321123D

 34 38  0  0  0  0  0  0  0  0999 V2000
    6.0737    7.3637   23.6107 N   0  0  0  0  0  0  0  0  0  0  0  0
    6.7295    6.5853   22.6561 C   0  0  0  0  0  0  0  0  0  0  0  0
    7.8937    6.6953   22.3066 O   0  0  0  0  0  0  0  0  0  0  0  0
    5.6872    5.6398   22.0709 C   0  0  2  0  0  0  0  0  0  0  0  0
    4.6953    5.5457   23.2222 C   0  0  0  0  0  0  0  0  0  0  0  0
    4.7050    6.9532   23.7832 C   0  0  0  0  0  0  0  0  0  0  0  0
    6.1703    4.3360   21.6021 N   0  0  0  0  0  0  0  0  0  0  0  0
    6.1914    3.5931   22.3031 H   0  0  0  0  0  0  0  0  0  0  0  0
    5.5971    3.7702   20.1240 S   0  0  0  0  0  0  0  0  0  0  0  0
    4.3171    3.1487   20.3627 O   0  0  0  0  0  0  0  0  0  0  0  0
    5.7330    4.8431   19.1617 O   0  0  0  0  0  0  0  0  0  0  0  0
    6.6662    2.4876   19.5199 C   0  0  0  0  0  0  0  0  0  0  0  0
    7.9741    2.1458   19.8088 C   0  0  0  0  0  0  0  0  0  0  0  0
    8.4772    1.1356   18.9376 C   0  0  0  0  0  0  0  0  0  0  0  0
    7.5029    0.6904   18.0448 C   0  0  0  0  0  0  0  0  0  0  0  0
    7.8263   -0.2523   17.0602 C   0  0  0  0  0  0  0  0  0  0  0  0
    9.1452   -0.6878   17.0064 C   0  0  0  0  0  0  0  0  0  0  0  0
   10.0446   -0.2104   17.9436 C   0  0  0  0  0  0  0  0  0  0  0  0
    9.7578    0.6741   18.9213 N   0  0  0  0  0  0  0  0  0  0  0  0
    5.9956    1.4569   18.3345 S   0  0  0  0  0  0  0  0  0  0  0  0
    6.5741    8.6220   24.1384 C   0  0  0  0  0  0  0  0  0  0  0  0
    9.0183    9.2514   23.9223 C   0  0  0  0  0  0  0  0  0  0  0  0
   10.3553    9.1561   24.3210 C   0  0  0  0  0  0  0  0  0  0  0  0
   10.7301    8.3480   25.4054 C   0  0  0  0  0  0  0  0  0  0  0  0
    9.7452    7.6186   26.1022 C   0  0  0  0  0  0  0  0  0  0  0  0
    8.3904    7.7456   25.6912 C   0  0  0  0  0  0  0  0  0  0  0  0
    8.0151    8.5510   24.6013 C   0  0  0  0  0  0  0  0  0  0  0  0
   10.1905    6.8013   27.1666 C   0  0  0  0  0  0  0  0  0  0  0  0
   11.4757    6.7116   27.5606 N   0  0  0  0  0  0  0  0  0  0  0  0
   12.3827    7.4354   26.8761 C   0  0  0  0  0  0  0  0  0  0  0  0
   12.0672    8.2492   25.8037 C   0  0  0  0  0  0  0  0  0  0  0  0
    9.3077    5.9989   27.9000 N   0  0  0  0  0  0  0  0  0  0  0  0
    8.8275    5.3553   27.2815 H   0  0  0  0  0  0  0  0  0  0  0  0
    9.8900    5.4940   28.5662 H   0  0  0  0  0  0  0  0  0  0  0  0
  1  2  1  0  0  0  0
  1  6  1  0  0  0  0
  2  3  2  0  0  0  0
  2  4  1  0  0  0  0
  4  5  1  0  0  0  0
  4  7  1  1  0  0  0
  5  6  1  0  0  0  0
  7  9  1  0  0  0  0
  7  8  1  0  0  0  0
  9 10  2  0  0  0  0
  9 11  2  0  0  0  0
  9 12  1  0  0  0  0
 12 13  2  0  0  0  0
 12 20  1  0  0  0  0
 13 14  1  0  0  0  0
 14 15  1  0  0  0  0
 14 19  2  0  0  0  0
 15 16  2  0  0  0  0
 15 20  1  0  0  0  0
 16 17  1  0  0  0  0
 17 18  2  0  0  0  0
 18 19  1  0  0  0  0
 21  1  1  0  0  0  0
 22 23  1  0  0  0  0
 22 27  2  0  0  0  0
 23 24  2  0  0  0  0
 24 25  1  0  0  0  0
 24 31  1  0  0  0  0
 25 26  2  0  0  0  0
 25 28  1  0  0  0  0
 26 27  1  0  0  0  0
 27 21  1  0  0  0  0
 28 29  2  0  0  0  0
 28 32  1  0  0  0  0
 29 30  1  0  0  0  0
 30 31  2  0  0  0  0
 32 33  1  0  0  0  0
 32 34  1  0  0  0  0
M  END
>  <minimizedAffinity>
-12.28560

$$$$
