data/FXA/cocry_dataset/1f0r_815_LIG.pdb
 OpenBabel03092321123D

 34 38  0  0  0  0  0  0  0  0999 V2000
    6.1039    3.5142   21.4406 N   0  0  0  0  0  0  0  0  0  0  0  0
    6.7751    4.6572   21.0047 C   0  0  0  0  0  0  0  0  0  0  0  0
    7.8372    4.6894   20.4039 O   0  0  0  0  0  0  0  0  0  0  0  0
    5.9749    5.8533   21.5065 C   0  0  2  0  0  0  0  0  0  0  0  0
    4.5823    5.2485   21.6218 C   0  0  0  0  0  0  0  0  0  0  0  0
    4.8712    3.8426   22.1071 C   0  0  0  0  0  0  0  0  0  0  0  0
    6.0228    7.0687   20.6859 N   0  0  0  0  0  0  0  0  0  0  0  0
    5.4571    7.0516   19.8354 H   0  0  0  0  0  0  0  0  0  0  0  0
    5.9067    8.5529   21.4715 S   0  0  0  0  0  0  0  0  0  0  0  0
    6.1253    9.5847   20.4869 O   0  0  0  0  0  0  0  0  0  0  0  0
    4.6993    8.5329   22.2697 O   0  0  0  0  0  0  0  0  0  0  0  0
    7.2231    8.7081   22.6531 C   0  0  0  0  0  0  0  0  0  0  0  0
    8.4698    9.3020   22.5929 C   0  0  0  0  0  0  0  0  0  0  0  0
    9.2624    9.0206   23.7441 C   0  0  0  0  0  0  0  0  0  0  0  0
    8.5604    8.2659   24.6834 C   0  0  0  0  0  0  0  0  0  0  0  0
    9.1950    7.8282   25.8532 C   0  0  0  0  0  0  0  0  0  0  0  0
   10.5367    8.1563   26.0090 C   0  0  0  0  0  0  0  0  0  0  0  0
   11.1528    8.9262   25.0380 C   0  0  0  0  0  0  0  0  0  0  0  0
   10.5620    9.3876   23.9160 N   0  0  0  0  0  0  0  0  0  0  0  0
    6.9468    7.9822   24.1743 S   0  0  0  0  0  0  0  0  0  0  0  0
    6.6915    2.1870   21.5153 C   0  0  0  0  0  0  0  0  0  0  0  0
    5.6029    1.2038   19.4500 C   0  0  0  0  0  0  0  0  0  0  0  0
    5.6642    0.5195   18.2319 C   0  0  0  0  0  0  0  0  0  0  0  0
    6.8915    0.0863   17.7075 C   0  0  0  0  0  0  0  0  0  0  0  0
    8.0811    0.3415   18.4197 C   0  0  0  0  0  0  0  0  0  0  0  0
    7.9968    1.0552   19.6461 C   0  0  0  0  0  0  0  0  0  0  0  0
    6.7665    1.4848   20.1747 C   0  0  0  0  0  0  0  0  0  0  0  0
    9.2812   -0.1454   17.8525 C   0  0  0  0  0  0  0  0  0  0  0  0
    9.3476   -0.7980   16.6757 N   0  0  0  0  0  0  0  0  0  0  0  0
    8.1890   -1.0092   16.0213 C   0  0  0  0  0  0  0  0  0  0  0  0
    6.9543   -0.6009   16.4908 C   0  0  0  0  0  0  0  0  0  0  0  0
   10.5166    0.0106   18.4930 N   0  0  0  0  0  0  0  0  0  0  0  0
   10.4887   -0.4175   19.4113 H   0  0  0  0  0  0  0  0  0  0  0  0
   11.1937   -0.4603   17.8948 H   0  0  0  0  0  0  0  0  0  0  0  0
  1  2  1  0  0  0  0
  1  6  1  0  0  0  0
  2  3  2  0  0  0  0
  2  4  1  0  0  0  0
  4  5  1  0  0  0  0
  4  7  1  6  0  0  0
  5  6  1  0  0  0  0
  7  9  1  0  0  0  0
  7  8  1  0  0  0  0
  9 10  2  0  0  0  0
  9 11  2  0  0  0  0
  9 12  1  0  0  0  0
 12 13  2  0  0  0  0
 12 20  1  0  0  0  0
 13 14  1  0  0  0  0
 14 15  1  0  0  0  0
 14 19  2  0  0  0  0
 15 16  2  0  0  0  0
 15 20  1  0  0  0  0
 16 17  1  0  0  0  0
 17 18  2  0  0  0  0
 18 19  1  0  0  0  0
 21  1  1  0  0  0  0
 22 23  1  0  0  0  0
 22 27  2  0  0  0  0
 23 24  2  0  0  0  0
 24 25  1  0  0  0  0
 24 31  1  0  0  0  0
 25 26  2  0  0  0  0
 25 28  1  0  0  0  0
 26 27  1  0  0  0  0
 27 21  1  0  0  0  0
 28 29  2  0  0  0  0
 28 32  1  0  0  0  0
 29 30  1  0  0  0  0
 30 31  2  0  0  0  0
 32 33  1  0  0  0  0
 32 34  1  0  0  0  0
M  END
>  <minimizedAffinity>
-11.33797

$$$$
