data/FXA/cocry_dataset/1f0s_PR2_LIG.pdb
 OpenBabel03092321123D

 30 34  0  0  0  0  0  0  0  0999 V2000
    5.4070    4.6492   21.3357 C   0  0  2  0  0  0  0  0  0  0  0  0
    5.0881    5.5330   22.5266 C   0  0  0  0  0  0  0  0  0  0  0  0
    4.5204    5.2045   23.5541 O   0  0  0  0  0  0  0  0  0  0  0  0
    5.5955    6.7903   22.2722 N   0  0  0  0  0  0  0  0  0  0  0  0
    6.2531    6.8707   20.9959 C   0  0  0  0  0  0  0  0  0  0  0  0
    5.6776    5.6872   20.2375 C   0  0  0  0  0  0  0  0  0  0  0  0
    4.3716    3.6996   20.8986 N   0  0  0  0  0  0  0  0  0  0  0  0
    3.4156    3.9510   21.1478 H   0  0  0  0  0  0  0  0  0  0  0  0
    4.6501    2.0604   21.2340 S   0  0  0  0  0  0  0  0  0  0  0  0
    3.4760    1.3029   20.8665 O   0  0  0  0  0  0  0  0  0  0  0  0
    5.1999    2.0068   22.5710 O   0  0  0  0  0  0  0  0  0  0  0  0
    7.1258    0.4478   18.2608 C   0  0  0  0  0  0  0  0  0  0  0  0
    7.6137   -0.1443   17.0867 C   0  0  0  0  0  0  0  0  0  0  0  0
    8.9908   -0.3153   16.9852 C   0  0  0  0  0  0  0  0  0  0  0  0
    9.7946    0.0938   18.0340 C   0  0  0  0  0  0  0  0  0  0  0  0
    9.3583    0.6717   19.1687 N   0  0  0  0  0  0  0  0  0  0  0  0
    8.0124    0.8511   19.2595 C   0  0  0  0  0  0  0  0  0  0  0  0
    7.3404    1.4661   20.3500 C   0  0  0  0  0  0  0  0  0  0  0  0
    5.9703    1.4830   20.1919 C   0  0  0  0  0  0  0  0  0  0  0  0
    5.4995    0.7754   18.7073 S   0  0  0  0  0  0  0  0  0  0  0  0
    5.6692    7.8335   23.2731 C   0  0  0  0  0  0  0  0  0  0  0  0
    7.0525    7.9273   23.8465 C   0  0  0  0  0  0  0  0  0  0  0  0
    8.0385    8.7257   23.3658 C   0  0  0  0  0  0  0  0  0  0  0  0
    9.1105    8.5837   24.2951 C   0  0  0  0  0  0  0  0  0  0  0  0
   10.3230    9.0966   24.4610 C   0  0  0  0  0  0  0  0  0  0  0  0
   11.1949    8.7190   25.6252 C   0  0  0  0  0  0  0  0  0  0  0  0
   10.6259    7.7662   26.5939 N   0  0  0  0  0  0  0  0  0  0  0  0
    9.4472    7.2798   26.4258 C   0  0  0  0  0  0  0  0  0  0  0  0
    8.5986    7.6422   25.2771 C   0  0  0  0  0  0  0  0  0  0  0  0
    7.3828    7.2370   25.0220 N   0  0  0  0  0  0  0  0  0  0  0  0
  1  7  1  6  0  0  0
  1  2  1  0  0  0  0
  1  6  1  0  0  0  0
  2  3  2  0  0  0  0
  2  4  1  0  0  0  0
  4  5  1  0  0  0  0
  4 21  1  0  0  0  0
  5  6  1  0  0  0  0
  7  8  1  0  0  0  0
  9 10  2  0  0  0  0
  9 11  2  0  0  0  0
  9  7  1  0  0  0  0
 12 13  1  0  0  0  0
 12 17  2  0  0  0  0
 12 20  1  0  0  0  0
 13 14  2  0  0  0  0
 14 15  1  0  0  0  0
 15 16  2  0  0  0  0
 16 17  1  0  0  0  0
 17 18  1  0  0  0  0
 18 19  2  0  0  0  0
 19 20  1  0  0  0  0
 19  9  1  0  0  0  0
 21 22  1  0  0  0  0
 22 23  2  0  0  0  0
 22 30  1  0  0  0  0
 23 24  1  0  0  0  0
 24 25  2  0  0  0  0
 24 29  1  0  0  0  0
 25 26  1  0  0  0  0
 26 27  1  0  0  0  0
 27 28  2  0  0  0  0
 28 29  1  0  0  0  0
 29 30  2  0  0  0  0
M  END
>  <minimizedAffinity>
-10.04750

$$$$
