data/FXA/cocry_dataset/1f0s_PR2_LIG.pdb


 30 34  0  0  0  0  0  0  0  0999 V2000
    5.0200    4.5918   21.9597 C   0  0  0  0  0  0  0  0  0  0  0  0
    6.0127    5.7387   21.9437 C   0  0  0  0  0  0  0  0  0  0  0  0
    7.0787    5.7796   21.3538 O   0  0  0  0  0  0  0  0  0  0  0  0
    5.4820    6.7721   22.6878 N   0  0  0  0  0  0  0  0  0  0  0  0
    4.1888    6.4528   23.2295 C   0  0  0  0  0  0  0  0  0  0  0  0
    4.1633    4.9347   23.1866 C   0  0  0  0  0  0  0  0  0  0  0  0
    5.5601    3.2283   22.0773 N   0  0  0  0  0  0  0  0  0  0  0  0
    6.5771    3.1622   22.1014 H   0  0  0  0  0  0  0  0  0  0  0  0
    4.9245    2.0629   21.0212 S   0  0  0  0  0  0  0  0  0  0  0  0
    3.9859    2.7039   20.1292 O   0  0  0  0  0  0  0  0  0  0  0  0
    4.5417    0.9355   21.8429 O   0  0  0  0  0  0  0  0  0  0  0  0
    7.3942    0.3261   18.1137 C   0  0  0  0  0  0  0  0  0  0  0  0
    7.8801   -0.3111   16.9627 C   0  0  0  0  0  0  0  0  0  0  0  0
    9.2559   -0.4966   16.8710 C   0  0  0  0  0  0  0  0  0  0  0  0
   10.0606   -0.0571   17.9068 C   0  0  0  0  0  0  0  0  0  0  0  0
    9.6263    0.5642   19.0191 N   0  0  0  0  0  0  0  0  0  0  0  0
    8.2816    0.7575   19.0999 C   0  0  0  0  0  0  0  0  0  0  0  0
    7.6120    1.4161   20.1662 C   0  0  0  0  0  0  0  0  0  0  0  0
    6.2425    1.4384   20.0038 C   0  0  0  0  0  0  0  0  0  0  0  0
    5.7696    0.6824   18.5440 S   0  0  0  0  0  0  0  0  0  0  0  0
    6.0507    8.1030   22.7159 C   0  0  0  0  0  0  0  0  0  0  0  0
    7.3468    8.1147   23.4714 C   0  0  0  0  0  0  0  0  0  0  0  0
    8.4418    8.8351   23.1213 C   0  0  0  0  0  0  0  0  0  0  0  0
    9.3658    8.6395   24.1894 C   0  0  0  0  0  0  0  0  0  0  0  0
   10.5775    9.0727   24.5136 C   0  0  0  0  0  0  0  0  0  0  0  0
   11.2556    8.6602   25.7896 C   0  0  0  0  0  0  0  0  0  0  0  0
   10.4959    7.7673   26.6816 N   0  0  0  0  0  0  0  0  0  0  0  0
    9.3199    7.3582   26.3595 C   0  0  0  0  0  0  0  0  0  0  0  0
    8.6616    7.7542   25.1022 C   0  0  0  0  0  0  0  0  0  0  0  0
    7.4663    7.4270   24.6881 N   0  0  0  0  0  0  0  0  0  0  0  0
 12 13  1  0  0  0
 12 17  2  0  0  0
 12 20  1  0  0  0
 13 14  2  0  0  0
 14 15  1  0  0  0
 15 16  2  0  0  0
 16 17  1  0  0  0
 17 18  1  0  0  0
 18 19  2  0  0  0
 19 20  1  0  0  0
 19  9  1  0  0  0
  9 10  2  0  0  0
  9 11  2  0  0  0
  9  7  1  0  0  0
  7  1  1  0  0  0
  7  8  1  0  0  0
  1  2  1  0  0  0
  1  6  1  0  0  0
  2  3  2  0  0  0
  2  4  1  0  0  0
  4  5  1  0  0  0
  4 21  1  0  0  0
  5  6  1  0  0  0
 21 22  1  0  0  0
 22 23  2  0  0  0
 22 30  1  0  0  0
 23 24  1  0  0  0
 24 25  2  0  0  0
 24 29  1  0  0  0
 25 26  1  0  0  0
 26 27  1  0  0  0
 27 28  2  0  0  0
 28 29  1  0  0  0
 29 30  2  0  0  0
M  END
> <minimizedAffinity>
-10.20149

$$$$
data/FXA/cocry_dataset/1f0s_PR2_LIG.pdb


 30 34  0  0  0  0  0  0  0  0999 V2000
    5.4070    4.6492   21.3357 C   0  0  0  0  0  0  0  0  0  0  0  0
    5.0881    5.5330   22.5266 C   0  0  0  0  0  0  0  0  0  0  0  0
    4.5204    5.2045   23.5541 O   0  0  0  0  0  0  0  0  0  0  0  0
    5.5955    6.7903   22.2722 N   0  0  0  0  0  0  0  0  0  0  0  0
    6.2531    6.8707   20.9959 C   0  0  0  0  0  0  0  0  0  0  0  0
    5.6776    5.6872   20.2375 C   0  0  0  0  0  0  0  0  0  0  0  0
    4.3716    3.6996   20.8986 N   0  0  0  0  0  0  0  0  0  0  0  0
    3.4156    3.9510   21.1478 H   0  0  0  0  0  0  0  0  0  0  0  0
    4.6501    2.0604   21.2340 S   0  0  0  0  0  0  0  0  0  0  0  0
    3.4760    1.3029   20.8665 O   0  0  0  0  0  0  0  0  0  0  0  0
    5.1999    2.0068   22.5710 O   0  0  0  0  0  0  0  0  0  0  0  0
    7.1258    0.4478   18.2608 C   0  0  0  0  0  0  0  0  0  0  0  0
    7.6137   -0.1443   17.0867 C   0  0  0  0  0  0  0  0  0  0  0  0
    8.9908   -0.3153   16.9852 C   0  0  0  0  0  0  0  0  0  0  0  0
    9.7946    0.0938   18.0340 C   0  0  0  0  0  0  0  0  0  0  0  0
    9.3583    0.6717   19.1687 N   0  0  0  0  0  0  0  0  0  0  0  0
    8.0124    0.8511   19.2595 C   0  0  0  0  0  0  0  0  0  0  0  0
    7.3404    1.4661   20.3500 C   0  0  0  0  0  0  0  0  0  0  0  0
    5.9703    1.4830   20.1919 C   0  0  0  0  0  0  0  0  0  0  0  0
    5.4995    0.7754   18.7073 S   0  0  0  0  0  0  0  0  0  0  0  0
    5.6692    7.8335   23.2731 C   0  0  0  0  0  0  0  0  0  0  0  0
    7.0525    7.9273   23.8465 C   0  0  0  0  0  0  0  0  0  0  0  0
    8.0385    8.7257   23.3658 C   0  0  0  0  0  0  0  0  0  0  0  0
    9.1105    8.5837   24.2951 C   0  0  0  0  0  0  0  0  0  0  0  0
   10.3230    9.0966   24.4610 C   0  0  0  0  0  0  0  0  0  0  0  0
   11.1949    8.7190   25.6252 C   0  0  0  0  0  0  0  0  0  0  0  0
   10.6259    7.7662   26.5939 N   0  0  0  0  0  0  0  0  0  0  0  0
    9.4472    7.2798   26.4258 C   0  0  0  0  0  0  0  0  0  0  0  0
    8.5986    7.6422   25.2771 C   0  0  0  0  0  0  0  0  0  0  0  0
    7.3828    7.2370   25.0220 N   0  0  0  0  0  0  0  0  0  0  0  0
 12 13  1  0  0  0
 12 17  2  0  0  0
 12 20  1  0  0  0
 13 14  2  0  0  0
 14 15  1  0  0  0
 15 16  2  0  0  0
 16 17  1  0  0  0
 17 18  1  0  0  0
 18 19  2  0  0  0
 19 20  1  0  0  0
 19  9  1  0  0  0
  9 10  2  0  0  0
  9 11  2  0  0  0
  9  7  1  0  0  0
  7  1  1  0  0  0
  7  8  1  0  0  0
  1  2  1  0  0  0
  1  6  1  0  0  0
  2  3  2  0  0  0
  2  4  1  0  0  0
  4  5  1  0  0  0
  4 21  1  0  0  0
  5  6  1  0  0  0
 21 22  1  0  0  0
 22 23  2  0  0  0
 22 30  1  0  0  0
 23 24  1  0  0  0
 24 25  2  0  0  0
 24 29  1  0  0  0
 25 26  1  0  0  0
 26 27  1  0  0  0
 27 28  2  0  0  0
 28 29  1  0  0  0
 29 30  2  0  0  0
M  END
> <minimizedAffinity>
-10.04750

$$$$
data/FXA/cocry_dataset/1f0s_PR2_LIG.pdb


 30 34  0  0  0  0  0  0  0  0999 V2000
    4.9191    4.9152   21.4020 C   0  0  0  0  0  0  0  0  0  0  0  0
    5.9058    6.0616   21.2885 C   0  0  0  0  0  0  0  0  0  0  0  0
    6.7726    6.2040   20.4433 O   0  0  0  0  0  0  0  0  0  0  0  0
    5.6296    6.9630   22.2957 N   0  0  0  0  0  0  0  0  0  0  0  0
    4.5223    6.5504   23.1152 C   0  0  0  0  0  0  0  0  0  0  0  0
    4.4384    5.0567   22.8531 C   0  0  0  0  0  0  0  0  0  0  0  0
    5.4275    3.5556   21.1614 N   0  0  0  0  0  0  0  0  0  0  0  0
    6.4364    3.4439   21.2559 H   0  0  0  0  0  0  0  0  0  0  0  0
    4.8831    2.7755   19.7571 S   0  0  0  0  0  0  0  0  0  0  0  0
    4.5829    3.7729   18.7558 O   0  0  0  0  0  0  0  0  0  0  0  0
    3.8954    1.8094   20.1858 O   0  0  0  0  0  0  0  0  0  0  0  0
    8.5021    0.9236   18.7360 C   0  0  0  0  0  0  0  0  0  0  0  0
    9.8496    0.5404   18.6703 C   0  0  0  0  0  0  0  0  0  0  0  0
   10.1872   -0.4429   17.7457 C   0  0  0  0  0  0  0  0  0  0  0  0
    9.1935   -0.9782   16.9459 C   0  0  0  0  0  0  0  0  0  0  0  0
    7.8919   -0.6381   16.9902 N   0  0  0  0  0  0  0  0  0  0  0  0
    7.5618    0.3135   17.9054 C   0  0  0  0  0  0  0  0  0  0  0  0
    6.2478    0.7991   18.1436 C   0  0  0  0  0  0  0  0  0  0  0  0
    6.2101    1.7880   19.1044 C   0  0  0  0  0  0  0  0  0  0  0  0
    7.7665    2.1102   19.7370 S   0  0  0  0  0  0  0  0  0  0  0  0
    6.2261    8.2800   22.3673 C   0  0  0  0  0  0  0  0  0  0  0  0
    7.4718    8.2578   23.2032 C   0  0  0  0  0  0  0  0  0  0  0  0
    8.5916    8.9789   22.9451 C   0  0  0  0  0  0  0  0  0  0  0  0
    9.4447    8.7435   24.0630 C   0  0  0  0  0  0  0  0  0  0  0  0
   10.6363    9.1562   24.4762 C   0  0  0  0  0  0  0  0  0  0  0  0
   11.2293    8.6998   25.7793 C   0  0  0  0  0  0  0  0  0  0  0  0
   10.4086    7.7872   26.5940 N   0  0  0  0  0  0  0  0  0  0  0  0
    9.2527    7.3981   26.1859 C   0  0  0  0  0  0  0  0  0  0  0  0
    8.6781    7.8373   24.9021 C   0  0  0  0  0  0  0  0  0  0  0  0
    7.5093    7.5330   24.4035 N   0  0  0  0  0  0  0  0  0  0  0  0
 12 13  1  0  0  0
 12 17  2  0  0  0
 12 20  1  0  0  0
 13 14  2  0  0  0
 14 15  1  0  0  0
 15 16  2  0  0  0
 16 17  1  0  0  0
 17 18  1  0  0  0
 18 19  2  0  0  0
 19 20  1  0  0  0
 19  9  1  0  0  0
  9 10  2  0  0  0
  9 11  2  0  0  0
  9  7  1  0  0  0
  7  1  1  0  0  0
  7  8  1  0  0  0
  1  2  1  0  0  0
  1  6  1  0  0  0
  2  3  2  0  0  0
  2  4  1  0  0  0
  4  5  1  0  0  0
  4 21  1  0  0  0
  5  6  1  0  0  0
 21 22  1  0  0  0
 22 23  2  0  0  0
 22 30  1  0  0  0
 23 24  1  0  0  0
 24 25  2  0  0  0
 24 29  1  0  0  0
 25 26  1  0  0  0
 26 27  1  0  0  0
 27 28  2  0  0  0
 28 29  1  0  0  0
 29 30  2  0  0  0
M  END
> <minimizedAffinity>
-9.69808

$$$$
