data/FXA/cocry_dataset/1f0s_PR2_LIG.pdb
 OpenBabel03092321123D

 30 34  0  0  0  0  0  0  0  0999 V2000
    5.0200    4.5918   21.9597 C   0  0  2  0  0  0  0  0  0  0  0  0
    6.0127    5.7387   21.9437 C   0  0  0  0  0  0  0  0  0  0  0  0
    7.0787    5.7796   21.3538 O   0  0  0  0  0  0  0  0  0  0  0  0
    5.4820    6.7721   22.6878 N   0  0  0  0  0  0  0  0  0  0  0  0
    4.1888    6.4528   23.2295 C   0  0  0  0  0  0  0  0  0  0  0  0
    4.1633    4.9347   23.1866 C   0  0  0  0  0  0  0  0  0  0  0  0
    5.5601    3.2283   22.0773 N   0  0  0  0  0  0  0  0  0  0  0  0
    6.5771    3.1622   22.1014 H   0  0  0  0  0  0  0  0  0  0  0  0
    4.9245    2.0629   21.0212 S   0  0  0  0  0  0  0  0  0  0  0  0
    3.9859    2.7039   20.1292 O   0  0  0  0  0  0  0  0  0  0  0  0
    4.5417    0.9355   21.8429 O   0  0  0  0  0  0  0  0  0  0  0  0
    7.3942    0.3261   18.1137 C   0  0  0  0  0  0  0  0  0  0  0  0
    7.8801   -0.3111   16.9627 C   0  0  0  0  0  0  0  0  0  0  0  0
    9.2559   -0.4966   16.8710 C   0  0  0  0  0  0  0  0  0  0  0  0
   10.0606   -0.0571   17.9068 C   0  0  0  0  0  0  0  0  0  0  0  0
    9.6263    0.5642   19.0191 N   0  0  0  0  0  0  0  0  0  0  0  0
    8.2816    0.7575   19.0999 C   0  0  0  0  0  0  0  0  0  0  0  0
    7.6120    1.4161   20.1662 C   0  0  0  0  0  0  0  0  0  0  0  0
    6.2425    1.4384   20.0038 C   0  0  0  0  0  0  0  0  0  0  0  0
    5.7696    0.6824   18.5440 S   0  0  0  0  0  0  0  0  0  0  0  0
    6.0507    8.1030   22.7159 C   0  0  0  0  0  0  0  0  0  0  0  0
    7.3468    8.1147   23.4714 C   0  0  0  0  0  0  0  0  0  0  0  0
    8.4418    8.8351   23.1213 C   0  0  0  0  0  0  0  0  0  0  0  0
    9.3658    8.6395   24.1894 C   0  0  0  0  0  0  0  0  0  0  0  0
   10.5775    9.0727   24.5136 C   0  0  0  0  0  0  0  0  0  0  0  0
   11.2556    8.6602   25.7896 C   0  0  0  0  0  0  0  0  0  0  0  0
   10.4959    7.7673   26.6816 N   0  0  0  0  0  0  0  0  0  0  0  0
    9.3199    7.3582   26.3595 C   0  0  0  0  0  0  0  0  0  0  0  0
    8.6616    7.7542   25.1022 C   0  0  0  0  0  0  0  0  0  0  0  0
    7.4663    7.4270   24.6881 N   0  0  0  0  0  0  0  0  0  0  0  0
  1  7  1  1  0  0  0
  1  2  1  0  0  0  0
  1  6  1  0  0  0  0
  2  3  2  0  0  0  0
  2  4  1  0  0  0  0
  4  5  1  0  0  0  0
  4 21  1  0  0  0  0
  5  6  1  0  0  0  0
  7  8  1  0  0  0  0
  9 10  2  0  0  0  0
  9 11  2  0  0  0  0
  9  7  1  0  0  0  0
 12 13  1  0  0  0  0
 12 17  2  0  0  0  0
 12 20  1  0  0  0  0
 13 14  2  0  0  0  0
 14 15  1  0  0  0  0
 15 16  2  0  0  0  0
 16 17  1  0  0  0  0
 17 18  1  0  0  0  0
 18 19  2  0  0  0  0
 19 20  1  0  0  0  0
 19  9  1  0  0  0  0
 21 22  1  0  0  0  0
 22 23  2  0  0  0  0
 22 30  1  0  0  0  0
 23 24  1  0  0  0  0
 24 25  2  0  0  0  0
 24 29  1  0  0  0  0
 25 26  1  0  0  0  0
 26 27  1  0  0  0  0
 27 28  2  0  0  0  0
 28 29  1  0  0  0  0
 29 30  2  0  0  0  0
M  END
>  <minimizedAffinity>
-10.20149

$$$$
