data/FXA/cocry_dataset/1fax_DX9_LIG.pdb
 OpenBabel03092321123D

 40 43  0  0  0  0  0  0  0  0999 V2000
    6.3138    1.7282   19.5704 C   0  0  1  0  0  0  0  0  0  0  0  0
    6.4623    3.2267   19.8352 C   0  0  0  0  0  0  0  0  0  0  0  0
    5.4640    4.0907   19.3596 C   0  0  0  0  0  0  0  0  0  0  0  0
    5.4069    5.4267   19.7710 C   0  0  0  0  0  0  0  0  0  0  0  0
    6.3646    5.9424   20.6397 C   0  0  0  0  0  0  0  0  0  0  0  0
    7.4121    5.1124   21.0471 C   0  0  0  0  0  0  0  0  0  0  0  0
    7.4755    3.7730   20.6345 C   0  0  0  0  0  0  0  0  0  0  0  0
    6.3774    7.2060   21.1686 O   0  0  0  0  0  0  0  0  0  0  0  0
    7.6123    7.6987   21.6829 C   0  0  2  0  0  0  0  0  0  0  0  0
    7.3869    8.8442   22.6697 C   0  0  0  0  0  0  0  0  0  0  0  0
    8.6874    9.5540   22.7382 N   0  0  0  0  0  0  0  0  0  0  0  0
    9.1306    9.5470   21.3285 C   0  0  0  0  0  0  0  0  0  0  0  0
    8.4647    8.3712   20.6169 C   0  0  0  0  0  0  0  0  0  0  0  0
    9.6194    8.9307   23.6791 C   0  0  1  0  0  0  0  0  0  0  0  0
   10.4671    9.9764   24.2162 N   0  0  0  0  0  0  0  0  0  0  0  0
    8.9174    8.3285   24.9055 C   0  0  0  0  0  0  0  0  0  0  0  0
    9.8541   10.7514   24.4640 H   0  0  0  0  0  0  0  0  0  0  0  0
   11.0964   10.3250   23.5048 H   0  0  0  0  0  0  0  0  0  0  0  0
    5.0351    1.0480   20.0306 C   0  0  0  0  0  0  0  0  0  0  0  0
    4.7630    0.9257   21.2223 O   0  0  0  0  0  0  0  0  0  0  0  0
    4.1934    0.6050   19.0801 O   0  0  0  0  0  0  0  0  0  0  0  0
    4.4779    0.7587   18.1547 H   0  0  0  0  0  0  0  0  0  0  0  0
    6.6100    1.3060   18.1061 C   0  0  0  0  0  0  0  0  0  0  0  0
    8.0047   -0.4999   17.0198 C   0  0  0  0  0  0  0  0  0  0  0  0
    7.9121    0.5459   17.9476 C   0  0  0  0  0  0  0  0  0  0  0  0
    9.0341    0.8573   18.7225 C   0  0  0  0  0  0  0  0  0  0  0  0
   10.2108    0.1120   18.5952 C   0  0  0  0  0  0  0  0  0  0  0  0
   10.2864   -0.9678   17.6993 C   0  0  0  0  0  0  0  0  0  0  0  0
   11.4393   -1.7560   17.5672 C   0  0  0  0  0  0  0  0  0  0  0  0
   11.4722   -2.8419   16.6811 C   0  0  0  0  0  0  0  0  0  0  0  0
   10.3520   -3.1738   15.9037 C   0  0  0  0  0  0  0  0  0  0  0  0
    9.2089   -2.3672   16.0264 C   0  0  0  0  0  0  0  0  0  0  0  0
    9.1647   -1.2766   16.9066 C   0  0  0  0  0  0  0  0  0  0  0  0
   10.3488   -4.3411   14.9988 C   0  0  0  0  0  0  0  0  0  0  0  0
   11.4828   -4.9091   14.6453 N   0  0  0  0  0  0  0  0  0  0  0  0
    9.2078   -4.8352   14.5643 N   0  0  0  0  0  0  0  0  0  0  0  0
   12.3662   -4.5626   15.0021 H   0  0  0  0  0  0  0  0  0  0  0  0
   11.5205   -5.7091   14.0286 H   0  0  0  0  0  0  0  0  0  0  0  0
    8.3286   -4.3856   14.7955 H   0  0  0  0  0  0  0  0  0  0  0  0
    9.1580   -5.6562   13.9771 H   0  0  0  0  0  0  0  0  0  0  0  0
  1  2  1  0  0  0  0
  1 19  1  0  0  0  0
  1 23  1  6  0  0  0
  2  3  1  0  0  0  0
  2  7  2  0  0  0  0
  3  4  2  0  0  0  0
  4  5  1  0  0  0  0
  5  6  2  0  0  0  0
  5  8  1  0  0  0  0
  6  7  1  0  0  0  0
  9  8  1  6  0  0  0
  9 10  1  0  0  0  0
  9 13  1  0  0  0  0
 10 11  1  0  0  0  0
 11 12  1  0  0  0  0
 11 14  1  0  0  0  0
 12 13  1  0  0  0  0
 14 15  1  0  0  0  0
 14 16  1  1  0  0  0
 15 17  1  0  0  0  0
 15 18  1  0  0  0  0
 19 20  2  0  0  0  0
 19 21  1  0  0  0  0
 21 22  1  0  0  0  0
 24 25  1  0  0  0  0
 24 33  2  0  0  0  0
 25 26  2  0  0  0  0
 25 23  1  0  0  0  0
 26 27  1  0  0  0  0
 27 28  2  0  0  0  0
 28 29  1  0  0  0  0
 28 33  1  0  0  0  0
 29 30  2  0  0  0  0
 30 31  1  0  0  0  0
 31 32  2  0  0  0  0
 31 34  1  0  0  0  0
 32 33  1  0  0  0  0
 34 35  2  0  0  0  0
 34 36  1  0  0  0  0
 35 37  1  0  0  0  0
 35 38  1  0  0  0  0
 36 39  1  0  0  0  0
 36 40  1  0  0  0  0
M  END
>  <minimizedAffinity>
-11.85890

$$$$
