data/FXA/cocry_dataset/1fjs_Z34_LIG.pdb


 43 46  0  0  0  0  0  0  0  0999 V2000
    5.0768    8.0430   22.4322 C   0  0  0  0  0  0  0  0  0  0  0  0
    4.1893    7.4076   23.2766 F   0  0  0  0  0  0  0  0  0  0  0  0
    4.8971    7.5501   21.1079 C   0  0  0  0  0  0  0  0  0  0  0  0
    5.8286    6.6068   20.6329 C   0  0  0  0  0  0  0  0  0  0  0  0
    5.6971    6.1061   19.3940 F   0  0  0  0  0  0  0  0  0  0  0  0
    6.8861    6.1884   21.4321 C   0  0  0  0  0  0  0  0  0  0  0  0
    7.2114    6.8207   22.5708 N   0  0  0  0  0  0  0  0  0  0  0  0
    6.3708    7.8076   22.9644 C   0  0  0  0  0  0  0  0  0  0  0  0
    3.8171    7.9583   20.3176 N   0  0  0  0  0  0  0  0  0  0  0  0
    4.0076    8.6943   19.0690 C   0  0  0  0  0  0  0  0  0  0  0  0
    2.4379    7.5252   20.6135 C   0  0  0  0  0  0  0  0  0  0  0  0
    1.4700    8.6836   20.8818 C   0  0  0  0  0  0  0  0  0  0  0  0
    0.3911    8.8192   20.3170 O   0  0  0  0  0  0  0  0  0  0  0  0
    1.8835    9.5535   21.8344 O   0  0  0  0  0  0  0  0  0  0  0  0
    2.8328    9.4478   22.0544 H   0  0  0  0  0  0  0  0  0  0  0  0
    6.7799    8.6836   23.9737 O   0  0  0  0  0  0  0  0  0  0  0  0
    8.0761    8.5961   24.4434 C   0  0  0  0  0  0  0  0  0  0  0  0
    8.4554    7.7759   25.5107 C   0  0  0  0  0  0  0  0  0  0  0  0
    9.7789    7.7628   25.9658 C   0  0  0  0  0  0  0  0  0  0  0  0
   10.7529    8.5194   25.3054 C   0  0  0  0  0  0  0  0  0  0  0  0
   10.3962    9.2845   24.1914 C   0  0  0  0  0  0  0  0  0  0  0  0
    9.0648    9.3174   23.7653 C   0  0  0  0  0  0  0  0  0  0  0  0
    8.7165   10.0607   22.6712 O   0  0  0  0  0  0  0  0  0  0  0  0
    9.5104   10.4870   22.3099 H   0  0  0  0  0  0  0  0  0  0  0  0
   10.1057    6.9667   27.1816 C   0  0  0  0  0  0  0  0  0  0  0  0
   11.2282    6.3415   27.3372 N   0  0  0  0  0  0  0  0  0  0  0  0
    9.2024    6.8814   28.2004 N   0  0  0  0  0  0  0  0  0  0  0  0
   11.8246    6.4280   26.5114 H   0  0  0  0  0  0  0  0  0  0  0  0
    8.6663    7.7241   28.3852 H   0  0  0  0  0  0  0  0  0  0  0  0
    9.6327    6.5071   29.0406 H   0  0  0  0  0  0  0  0  0  0  0  0
    7.7742    5.2071   21.0502 O   0  0  0  0  0  0  0  0  0  0  0  0
    7.3421    3.8999   20.9881 C   0  0  0  0  0  0  0  0  0  0  0  0
    6.3387    3.3596   21.7957 C   0  0  0  0  0  0  0  0  0  0  0  0
    5.9713    2.0242   21.6446 C   0  0  0  0  0  0  0  0  0  0  0  0
    6.6372    1.2169   20.7213 C   0  0  0  0  0  0  0  0  0  0  0  0
    7.6456    1.7392   19.8944 C   0  0  0  0  0  0  0  0  0  0  0  0
    8.0032    3.0852   20.0635 C   0  0  0  0  0  0  0  0  0  0  0  0
    8.3528    0.9287   18.8966 C   0  0  0  0  0  0  0  0  0  0  0  0
    7.8344    0.3817   17.7372 N   0  0  0  0  0  0  0  0  0  0  0  0
    6.5133    0.5201   17.1735 C   0  0  0  0  0  0  0  0  0  0  0  0
    8.8366   -0.3152   17.1092 C   0  0  0  0  0  0  0  0  0  0  0  0
    9.9487   -0.1242   17.8849 C   0  0  0  0  0  0  0  0  0  0  0  0
    9.6470    0.6531   18.9686 N   0  0  0  0  0  0  0  0  0  0  0  0
  1  2  1  0  0  0
  1  3  1  0  0  0
  1  8  1  0  0  0
  3  4  2  0  0  0
  3  9  1  0  0  0
  4  5  1  0  0  0
  4  6  1  0  0  0
  6  7  2  0  0  0
  6 31  1  0  0  0
  7  8  2  0  0  0
  8 16  1  0  0  0
 16 17  1  0  0  0
 17 18  1  0  0  0
 17 22  2  0  0  0
 18 19  2  0  0  0
 19 20  1  0  0  0
 19 25  1  0  0  0
 20 21  2  0  0  0
 21 22  1  0  0  0
 22 23  1  0  0  0
 23 24  1  0  0  0
 25 26  2  0  0  0
 25 27  1  0  0  0
 26 28  1  0  0  0
 27 29  1  0  0  0
 27 30  1  0  0  0
 31 32  1  0  0  0
 32 33  1  0  0  0
 32 37  2  0  0  0
 33 34  2  0  0  0
 34 35  1  0  0  0
 35 36  2  0  0  0
 36 37  1  0  0  0
 36 38  1  0  0  0
 38 39  1  0  0  0
 38 43  2  0  0  0
 39 40  1  0  0  0
 39 41  1  0  0  0
 41 42  2  0  0  0
 42 43  1  0  0  0
  9 11  1  0  0  0
  9 10  1  0  0  0
 11 12  1  0  0  0
 12 13  2  0  0  0
 12 14  1  0  0  0
 14 15  1  0  0  0
M  END
> <minimizedAffinity>
-12.89387

$$$$
data/FXA/cocry_dataset/1fjs_Z34_LIG.pdb


 43 46  0  0  0  0  0  0  0  0999 V2000
    4.9672    7.5113   23.2716 C   0  0  0  0  0  0  0  0  0  0  0  0
    4.7279    6.8547   24.4616 F   0  0  0  0  0  0  0  0  0  0  0  0
    4.3575    6.7872   22.2071 C   0  0  0  0  0  0  0  0  0  0  0  0
    5.1916    5.9852   21.4044 C   0  0  0  0  0  0  0  0  0  0  0  0
    4.6628    5.2770   20.3937 F   0  0  0  0  0  0  0  0  0  0  0  0
    6.5590    5.9195   21.6449 C   0  0  0  0  0  0  0  0  0  0  0  0
    7.1786    6.7777   22.4707 N   0  0  0  0  0  0  0  0  0  0  0  0
    6.3767    7.6270   23.1571 C   0  0  0  0  0  0  0  0  0  0  0  0
    2.9771    6.8399   21.9854 N   0  0  0  0  0  0  0  0  0  0  0  0
    2.3962    7.6526   20.9180 C   0  0  0  0  0  0  0  0  0  0  0  0
    2.0456    5.9517   22.7069 C   0  0  0  0  0  0  0  0  0  0  0  0
    2.6463    4.5883   23.0687 C   0  0  0  0  0  0  0  0  0  0  0  0
    3.1302    4.3217   24.1624 O   0  0  0  0  0  0  0  0  0  0  0  0
    2.5753    3.6623   22.0826 O   0  0  0  0  0  0  0  0  0  0  0  0
    2.3576    4.0556   21.2116 H   0  0  0  0  0  0  0  0  0  0  0  0
    6.9512    8.7168   23.8172 O   0  0  0  0  0  0  0  0  0  0  0  0
    8.2195    8.5786   24.3469 C   0  0  0  0  0  0  0  0  0  0  0  0
    8.5069    7.7845   25.4616 C   0  0  0  0  0  0  0  0  0  0  0  0
    9.8073    7.7184   25.9750 C   0  0  0  0  0  0  0  0  0  0  0  0
   10.8492    8.3923   25.3289 C   0  0  0  0  0  0  0  0  0  0  0  0
   10.5832    9.1282   24.1707 C   0  0  0  0  0  0  0  0  0  0  0  0
    9.2749    9.2158   23.6852 C   0  0  0  0  0  0  0  0  0  0  0  0
    9.0151    9.9303   22.5481 O   0  0  0  0  0  0  0  0  0  0  0  0
    9.8463   10.2972   22.2056 H   0  0  0  0  0  0  0  0  0  0  0  0
   10.0373    6.9575   27.2347 C   0  0  0  0  0  0  0  0  0  0  0  0
    9.1606    6.8783   28.1835 N   0  0  0  0  0  0  0  0  0  0  0  0
   11.2150    6.2948   27.4222 N   0  0  0  0  0  0  0  0  0  0  0  0
    8.3291    7.4351   27.9747 H   0  0  0  0  0  0  0  0  0  0  0  0
   11.6128    5.8612   26.5943 H   0  0  0  0  0  0  0  0  0  0  0  0
   11.1506    5.6478   28.2022 H   0  0  0  0  0  0  0  0  0  0  0  0
    7.4057    5.0871   20.9467 O   0  0  0  0  0  0  0  0  0  0  0  0
    7.1470    3.7335   20.9252 C   0  0  0  0  0  0  0  0  0  0  0  0
    6.2541    3.0856   21.7818 C   0  0  0  0  0  0  0  0  0  0  0  0
    6.0600    1.7105   21.6694 C   0  0  0  0  0  0  0  0  0  0  0  0
    6.7912    0.9761   20.7347 C   0  0  0  0  0  0  0  0  0  0  0  0
    7.6907    1.6065   19.8589 C   0  0  0  0  0  0  0  0  0  0  0  0
    7.8745    2.9912   19.9896 C   0  0  0  0  0  0  0  0  0  0  0  0
    8.4606    0.8726   18.8484 C   0  0  0  0  0  0  0  0  0  0  0  0
    7.9971    0.3474   17.6561 N   0  0  0  0  0  0  0  0  0  0  0  0
    6.6839    0.4425   17.0655 C   0  0  0  0  0  0  0  0  0  0  0  0
    9.0473   -0.2733   17.0266 C   0  0  0  0  0  0  0  0  0  0  0  0
   10.1304   -0.0586   17.8365 C   0  0  0  0  0  0  0  0  0  0  0  0
    9.7650    0.6588   18.9418 N   0  0  0  0  0  0  0  0  0  0  0  0
  1  2  1  0  0  0
  1  3  1  0  0  0
  1  8  1  0  0  0
  3  4  2  0  0  0
  3  9  1  0  0  0
  4  5  1  0  0  0
  4  6  1  0  0  0
  6  7  2  0  0  0
  6 31  1  0  0  0
  7  8  2  0  0  0
  8 16  1  0  0  0
 16 17  1  0  0  0
 17 18  1  0  0  0
 17 22  2  0  0  0
 18 19  2  0  0  0
 19 20  1  0  0  0
 19 25  1  0  0  0
 20 21  2  0  0  0
 21 22  1  0  0  0
 22 23  1  0  0  0
 23 24  1  0  0  0
 25 26  2  0  0  0
 25 27  1  0  0  0
 26 28  1  0  0  0
 27 29  1  0  0  0
 27 30  1  0  0  0
 31 32  1  0  0  0
 32 33  1  0  0  0
 32 37  2  0  0  0
 33 34  2  0  0  0
 34 35  1  0  0  0
 35 36  2  0  0  0
 36 37  1  0  0  0
 36 38  1  0  0  0
 38 39  1  0  0  0
 38 43  2  0  0  0
 39 40  1  0  0  0
 39 41  1  0  0  0
 41 42  2  0  0  0
 42 43  1  0  0  0
  9 11  1  0  0  0
  9 10  1  0  0  0
 11 12  1  0  0  0
 12 13  2  0  0  0
 12 14  1  0  0  0
 14 15  1  0  0  0
M  END
> <minimizedAffinity>
-12.78880

$$$$
data/FXA/cocry_dataset/1fjs_Z34_LIG.pdb


 43 46  0  0  0  0  0  0  0  0999 V2000
    5.1668    4.9073   21.3823 C   0  0  0  0  0  0  0  0  0  0  0  0
    5.3948    5.2503   22.6994 F   0  0  0  0  0  0  0  0  0  0  0  0
    4.6482    3.5817   21.3273 C   0  0  0  0  0  0  0  0  0  0  0  0
    5.5360    2.5503   20.9650 C   0  0  0  0  0  0  0  0  0  0  0  0
    5.0968    1.2829   20.9070 F   0  0  0  0  0  0  0  0  0  0  0  0
    6.8640    2.8295   20.6640 C   0  0  0  0  0  0  0  0  0  0  0  0
    7.3009    4.0837   20.4675 N   0  0  0  0  0  0  0  0  0  0  0  0
    6.4045    5.0706   20.7082 C   0  0  0  0  0  0  0  0  0  0  0  0
    3.3162    3.3050   21.6541 N   0  0  0  0  0  0  0  0  0  0  0  0
    2.2073    3.7245   20.7988 C   0  0  0  0  0  0  0  0  0  0  0  0
    2.9665    2.4322   22.7912 C   0  0  0  0  0  0  0  0  0  0  0  0
    2.4335    3.1910   24.0123 C   0  0  0  0  0  0  0  0  0  0  0  0
    1.5778    2.7519   24.7714 O   0  0  0  0  0  0  0  0  0  0  0  0
    3.0106    4.3987   24.2205 O   0  0  0  0  0  0  0  0  0  0  0  0
    3.5194    4.7120   23.4435 H   0  0  0  0  0  0  0  0  0  0  0  0
    6.6899    6.3668   20.2701 O   0  0  0  0  0  0  0  0  0  0  0  0
    7.5294    7.1554   21.0328 C   0  0  0  0  0  0  0  0  0  0  0  0
    7.6900    6.9994   22.4132 C   0  0  0  0  0  0  0  0  0  0  0  0
    8.5259    7.8582   23.1363 C   0  0  0  0  0  0  0  0  0  0  0  0
    9.2678    8.8382   22.4682 C   0  0  0  0  0  0  0  0  0  0  0  0
    9.1694    8.9522   21.0785 C   0  0  0  0  0  0  0  0  0  0  0  0
    8.3058    8.1118   20.3693 C   0  0  0  0  0  0  0  0  0  0  0  0
    8.2141    8.2185   19.0087 O   0  0  0  0  0  0  0  0  0  0  0  0
    8.8193    8.9131   18.7022 H   0  0  0  0  0  0  0  0  0  0  0  0
    8.5678    7.7286   24.6196 C   0  0  0  0  0  0  0  0  0  0  0  0
    9.3961    8.3878   25.3642 N   0  0  0  0  0  0  0  0  0  0  0  0
    7.6979    6.8898   25.2527 N   0  0  0  0  0  0  0  0  0  0  0  0
   10.0329    8.9587   24.8041 H   0  0  0  0  0  0  0  0  0  0  0  0
    6.7640    6.8428   24.8560 H   0  0  0  0  0  0  0  0  0  0  0  0
    7.6828    7.0651   26.2528 H   0  0  0  0  0  0  0  0  0  0  0  0
    7.7937    1.8513   20.3880 O   0  0  0  0  0  0  0  0  0  0  0  0
    7.7847    1.2493   19.1482 C   0  0  0  0  0  0  0  0  0  0  0  0
    6.7944    1.4431   18.1824 C   0  0  0  0  0  0  0  0  0  0  0  0
    6.8863    0.7904   16.9549 C   0  0  0  0  0  0  0  0  0  0  0  0
    7.9401   -0.0910   16.7098 C   0  0  0  0  0  0  0  0  0  0  0  0
    8.9505   -0.2978   17.6637 C   0  0  0  0  0  0  0  0  0  0  0  0
    8.8389    0.3663   18.8944 C   0  0  0  0  0  0  0  0  0  0  0  0
   10.0858   -1.1985   17.4346 C   0  0  0  0  0  0  0  0  0  0  0  0
   10.1428   -2.2763   16.5701 N   0  0  0  0  0  0  0  0  0  0  0  0
    9.1535   -2.7469   15.6309 C   0  0  0  0  0  0  0  0  0  0  0  0
   11.3845   -2.8500   16.6851 C   0  0  0  0  0  0  0  0  0  0  0  0
   12.0616   -2.0669   17.5814 C   0  0  0  0  0  0  0  0  0  0  0  0
   11.2638   -1.0476   18.0224 N   0  0  0  0  0  0  0  0  0  0  0  0
  1  2  1  0  0  0
  1  3  1  0  0  0
  1  8  1  0  0  0
  3  4  2  0  0  0
  3  9  1  0  0  0
  4  5  1  0  0  0
  4  6  1  0  0  0
  6  7  2  0  0  0
  6 31  1  0  0  0
  7  8  2  0  0  0
  8 16  1  0  0  0
 16 17  1  0  0  0
 17 18  1  0  0  0
 17 22  2  0  0  0
 18 19  2  0  0  0
 19 20  1  0  0  0
 19 25  1  0  0  0
 20 21  2  0  0  0
 21 22  1  0  0  0
 22 23  1  0  0  0
 23 24  1  0  0  0
 25 26  2  0  0  0
 25 27  1  0  0  0
 26 28  1  0  0  0
 27 29  1  0  0  0
 27 30  1  0  0  0
 31 32  1  0  0  0
 32 33  1  0  0  0
 32 37  2  0  0  0
 33 34  2  0  0  0
 34 35  1  0  0  0
 35 36  2  0  0  0
 36 37  1  0  0  0
 36 38  1  0  0  0
 38 39  1  0  0  0
 38 43  2  0  0  0
 39 40  1  0  0  0
 39 41  1  0  0  0
 41 42  2  0  0  0
 42 43  1  0  0  0
  9 11  1  0  0  0
  9 10  1  0  0  0
 11 12  1  0  0  0
 12 13  2  0  0  0
 12 14  1  0  0  0
 14 15  1  0  0  0
M  END
> <minimizedAffinity>
-11.48808

$$$$
