data/FXA/cocry_dataset/1g2l_T87_LIG.pdb
 OpenBabel03092321123D

 43 47  0  0  0  0  0  0  0  0999 V2000
    4.8944    6.5060   15.7757 C   0  0  0  0  0  0  0  0  0  0  0  0
    5.2182    5.9797   16.9438 N   0  0  0  0  0  0  0  0  0  0  0  0
    4.7825    4.7018   16.7727 C   0  0  0  0  0  0  0  0  0  0  0  0
    3.7239    4.6419   15.8774 C   0  0  0  0  0  0  0  0  0  0  0  0
    3.6439    5.9555   15.4497 N   0  0  0  0  0  0  0  0  0  0  0  0
    2.3709    6.6498   15.5393 C   0  0  0  0  0  0  0  0  0  0  0  0
    2.9474    3.4984   15.6872 C   0  0  0  0  0  0  0  0  0  0  0  0
    3.3443    2.3705   16.4155 C   0  0  0  0  0  0  0  0  0  0  0  0
    4.4855    2.3734   17.2396 C   0  0  0  0  0  0  0  0  0  0  0  0
    5.2410    3.5465   17.3651 C   0  0  0  0  0  0  0  0  0  0  0  0
    4.8819    1.2244   18.1355 C   0  0  0  0  0  0  0  0  0  0  0  0
    3.7695    0.8475   19.1387 C   0  0  0  0  0  0  0  0  0  0  0  0
    5.0702    1.3694   19.6353 C   0  0  0  0  0  0  0  0  0  0  0  0
    5.7120    0.1667   17.4186 C   0  0  0  0  0  0  0  0  0  0  0  0
    5.1898   -0.7583   16.6461 N   0  0  0  0  0  0  0  0  0  0  0  0
    7.1902    0.1472   17.6901 C   0  0  0  0  0  0  0  0  0  0  0  0
    7.9825   -0.4835   16.7802 N   0  0  0  0  0  0  0  0  0  0  0  0
    9.3124   -0.4945   17.0053 C   0  0  0  0  0  0  0  0  0  0  0  0
    9.9016    0.0916   18.1088 C   0  0  0  0  0  0  0  0  0  0  0  0
    9.0769    0.7444   19.0223 C   0  0  0  0  0  0  0  0  0  0  0  0
    7.6990    0.7867   18.8113 C   0  0  0  0  0  0  0  0  0  0  0  0
    3.7753   -0.7225   16.5554 O   0  0  0  0  0  0  0  0  0  0  0  0
    3.2858   -2.0397   16.2640 C   0  0  0  0  0  0  0  0  0  0  0  0
    3.7007   -2.5821   14.8857 C   0  0  0  0  0  0  0  0  0  0  0  0
    3.3180   -2.1517   13.8051 O   0  0  0  0  0  0  0  0  0  0  0  0
    4.5392   -3.6627   15.0252 O   0  0  0  0  0  0  0  0  0  0  0  0
    5.7312   -3.6844   14.2090 C   0  0  0  0  0  0  0  0  0  0  0  0
    6.9995   -3.5163   15.0311 C   0  0  0  0  0  0  0  0  0  0  0  0
    6.0389    6.6621   14.7840 C   0  0  0  0  0  0  0  0  0  0  0  0
    5.8631    6.1764   13.4198 N   0  0  0  0  0  0  0  0  0  0  0  0
    6.5618    6.5972   12.8111 H   0  0  0  0  0  0  0  0  0  0  0  0
    5.7194    1.9881   13.2476 C   0  0  0  0  0  0  0  0  0  0  0  0
    6.6983    2.6155   14.0088 C   0  0  0  0  0  0  0  0  0  0  0  0
    6.7609    4.0054   14.0408 C   0  0  0  0  0  0  0  0  0  0  0  0
    5.8687    4.7829   13.2993 C   0  0  0  0  0  0  0  0  0  0  0  0
    4.8995    4.1374   12.5216 C   0  0  0  0  0  0  0  0  0  0  0  0
    4.8358    2.7440   12.4767 C   0  0  0  0  0  0  0  0  0  0  0  0
    4.7482   -0.1278   12.4675 N   0  0  0  0  0  0  0  0  0  0  0  0
    5.6003    0.5176   13.3184 C   0  0  0  0  0  0  0  0  0  0  0  0
    6.3237   -0.1491   14.1579 N   0  0  0  0  0  0  0  0  0  0  0  0
    4.9475   -1.1073   12.3129 H   0  0  0  0  0  0  0  0  0  0  0  0
    4.5778    0.3536   11.5886 H   0  0  0  0  0  0  0  0  0  0  0  0
    6.0997   -1.1436   14.0963 H   0  0  0  0  0  0  0  0  0  0  0  0
  1  2  2  0  0  0  0
  1  5  1  0  0  0  0
  2  3  1  0  0  0  0
  3  4  1  0  0  0  0
  3 10  2  0  0  0  0
  4  5  1  0  0  0  0
  4  7  2  0  0  0  0
  5  6  1  0  0  0  0
  7  8  1  0  0  0  0
  8  9  2  0  0  0  0
  9 10  1  0  0  0  0
  9 11  1  0  0  0  0
 11 12  1  0  0  0  0
 11 13  1  0  0  0  0
 11 14  1  0  0  0  0
 12 13  1  0  0  0  0
 14 15  2  0  0  0  0
 14 16  1  0  0  0  0
 15 22  1  0  0  0  0
 16 17  1  0  0  0  0
 16 21  2  0  0  0  0
 17 18  2  0  0  0  0
 18 19  1  0  0  0  0
 19 20  2  0  0  0  0
 20 21  1  0  0  0  0
 22 23  1  0  0  0  0
 23 24  1  0  0  0  0
 24 25  2  0  0  0  0
 24 26  1  0  0  0  0
 26 27  1  0  0  0  0
 27 28  1  0  0  0  0
 29  1  1  0  0  0  0
 30 29  1  0  0  0  0
 30 31  1  0  0  0  0
 32 33  1  0  0  0  0
 32 37  2  0  0  0  0
 33 34  2  0  0  0  0
 34 35  1  0  0  0  0
 35 36  2  0  0  0  0
 35 30  1  0  0  0  0
 36 37  1  0  0  0  0
 38 39  1  0  0  0  0
 38 41  1  0  0  0  0
 38 42  1  0  0  0  0
 39 40  2  0  0  0  0
 39 32  1  0  0  0  0
 40 43  1  0  0  0  0
M  END
>  <minimizedAffinity>
-9.03418

$$$$
