data/FXA/cocry_dataset/1g2l_T87_LIG.pdb
 OpenBabel03092321123D

 43 47  0  0  0  0  0  0  0  0999 V2000
    1.4566    0.0209   21.2529 C   0  0  0  0  0  0  0  0  0  0  0  0
    1.7268   -0.7150   20.1891 N   0  0  0  0  0  0  0  0  0  0  0  0
    2.5281    0.1360   19.4922 C   0  0  0  0  0  0  0  0  0  0  0  0
    2.2289    1.4612   19.7749 C   0  0  0  0  0  0  0  0  0  0  0  0
    1.2760    1.3273   20.7695 N   0  0  0  0  0  0  0  0  0  0  0  0
   -0.0041    1.9964   20.6141 C   0  0  0  0  0  0  0  0  0  0  0  0
    2.7395    2.5333   19.0424 C   0  0  0  0  0  0  0  0  0  0  0  0
    3.6419    2.1958   18.0267 C   0  0  0  0  0  0  0  0  0  0  0  0
    4.0515    0.8686   17.7980 C   0  0  0  0  0  0  0  0  0  0  0  0
    3.5238   -0.1605   18.5886 C   0  0  0  0  0  0  0  0  0  0  0  0
    4.9239    0.4424   16.6416 C   0  0  0  0  0  0  0  0  0  0  0  0
    4.0997    0.0106   15.4087 C   0  0  0  0  0  0  0  0  0  0  0  0
    4.9592   -0.9795   16.1099 C   0  0  0  0  0  0  0  0  0  0  0  0
    6.1920    1.2770   16.5105 C   0  0  0  0  0  0  0  0  0  0  0  0
    6.2770    2.3451   15.7508 N   0  0  0  0  0  0  0  0  0  0  0  0
    7.4186    0.7877   17.2284 C   0  0  0  0  0  0  0  0  0  0  0  0
    8.3453    0.1157   16.4914 N   0  0  0  0  0  0  0  0  0  0  0  0
    9.4574   -0.3151   17.1216 C   0  0  0  0  0  0  0  0  0  0  0  0
    9.6942   -0.1152   18.4678 C   0  0  0  0  0  0  0  0  0  0  0  0
    8.7416    0.5864   19.2033 C   0  0  0  0  0  0  0  0  0  0  0  0
    7.5874    1.0583   18.5786 C   0  0  0  0  0  0  0  0  0  0  0  0
    5.0979    2.6480   15.0239 O   0  0  0  0  0  0  0  0  0  0  0  0
    5.1528    4.0114   14.5793 C   0  0  0  0  0  0  0  0  0  0  0  0
    5.5929    5.0153   15.6584 C   0  0  0  0  0  0  0  0  0  0  0  0
    5.3494    4.9286   16.8552 O   0  0  0  0  0  0  0  0  0  0  0  0
    6.2712    6.0676   15.0901 O   0  0  0  0  0  0  0  0  0  0  0  0
    7.1392    5.7694   13.9743 C   0  0  0  0  0  0  0  0  0  0  0  0
    8.4186    6.5911   13.9994 C   0  0  0  0  0  0  0  0  0  0  0  0
    2.2494   -0.3191   22.5073 C   0  0  0  0  0  0  0  0  0  0  0  0
    2.7115    0.7651   23.3668 N   0  0  0  0  0  0  0  0  0  0  0  0
    2.9788    0.3944   24.2762 H   0  0  0  0  0  0  0  0  0  0  0  0
    5.6674    3.0933   21.5136 C   0  0  0  0  0  0  0  0  0  0  0  0
    5.7363    1.7069   21.4464 C   0  0  0  0  0  0  0  0  0  0  0  0
    4.7698    0.9370   22.0868 C   0  0  0  0  0  0  0  0  0  0  0  0
    3.7419    1.5357   22.8184 C   0  0  0  0  0  0  0  0  0  0  0  0
    3.6954    2.9332   22.8936 C   0  0  0  0  0  0  0  0  0  0  0  0
    4.6660    3.7122   22.2623 C   0  0  0  0  0  0  0  0  0  0  0  0
    6.3943    4.1323   19.4110 N   0  0  0  0  0  0  0  0  0  0  0  0
    6.6362    3.8899   20.7336 C   0  0  0  0  0  0  0  0  0  0  0  0
    7.6847    4.3783   21.3121 N   0  0  0  0  0  0  0  0  0  0  0  0
    6.8723    4.9339   19.0214 H   0  0  0  0  0  0  0  0  0  0  0  0
    5.4118    4.1302   19.1501 H   0  0  0  0  0  0  0  0  0  0  0  0
    8.2585    4.8754   20.6290 H   0  0  0  0  0  0  0  0  0  0  0  0
  1  2  2  0  0  0  0
  1  5  1  0  0  0  0
  2  3  1  0  0  0  0
  3  4  1  0  0  0  0
  3 10  2  0  0  0  0
  4  5  1  0  0  0  0
  4  7  2  0  0  0  0
  5  6  1  0  0  0  0
  7  8  1  0  0  0  0
  8  9  2  0  0  0  0
  9 10  1  0  0  0  0
  9 11  1  0  0  0  0
 11 12  1  0  0  0  0
 11 13  1  0  0  0  0
 11 14  1  0  0  0  0
 12 13  1  0  0  0  0
 14 15  2  0  0  0  0
 14 16  1  0  0  0  0
 15 22  1  0  0  0  0
 16 17  1  0  0  0  0
 16 21  2  0  0  0  0
 17 18  2  0  0  0  0
 18 19  1  0  0  0  0
 19 20  2  0  0  0  0
 20 21  1  0  0  0  0
 22 23  1  0  0  0  0
 23 24  1  0  0  0  0
 24 25  2  0  0  0  0
 24 26  1  0  0  0  0
 26 27  1  0  0  0  0
 27 28  1  0  0  0  0
 29  1  1  0  0  0  0
 30 29  1  0  0  0  0
 30 31  1  0  0  0  0
 32 33  1  0  0  0  0
 32 37  2  0  0  0  0
 33 34  2  0  0  0  0
 34 35  1  0  0  0  0
 35 36  2  0  0  0  0
 35 30  1  0  0  0  0
 36 37  1  0  0  0  0
 38 39  1  0  0  0  0
 38 41  1  0  0  0  0
 38 42  1  0  0  0  0
 39 40  2  0  0  0  0
 39 32  1  0  0  0  0
 40 43  1  0  0  0  0
M  END
>  <minimizedAffinity>
-9.06850

$$$$
