data/FXA/cocry_dataset/1g2l_T87_LIG.pdb


 43 47  0  0  0  0  0  0  0  0999 V2000
    1.8682   -0.0726   20.5508 C   0  0  0  0  0  0  0  0  0  0  0  0
    2.1659   -0.6577   19.4040 N   0  0  0  0  0  0  0  0  0  0  0  0
    2.9893    0.2751   18.8526 C   0  0  0  0  0  0  0  0  0  0  0  0
    2.6866    1.5511   19.3061 C   0  0  0  0  0  0  0  0  0  0  0  0
    1.7056    1.2890   20.2464 N   0  0  0  0  0  0  0  0  0  0  0  0
    0.4326    1.9822   20.1490 C   0  0  0  0  0  0  0  0  0  0  0  0
    3.2212    2.7098   18.7419 C   0  0  0  0  0  0  0  0  0  0  0  0
    4.1508    2.5082   17.7147 C   0  0  0  0  0  0  0  0  0  0  0  0
    4.5623    1.2220   17.3175 C   0  0  0  0  0  0  0  0  0  0  0  0
    4.0092    0.0980   17.9446 C   0  0  0  0  0  0  0  0  0  0  0  0
    5.4656    0.9520   16.1380 C   0  0  0  0  0  0  0  0  0  0  0  0
    5.9772    2.2510   15.4773 C   0  0  0  0  0  0  0  0  0  0  0  0
    5.1007    1.3253   14.7120 C   0  0  0  0  0  0  0  0  0  0  0  0
    6.3693   -0.2577   16.3420 C   0  0  0  0  0  0  0  0  0  0  0  0
    6.0797   -1.4579   15.8939 N   0  0  0  0  0  0  0  0  0  0  0  0
    7.6070   -0.0635   17.1724 C   0  0  0  0  0  0  0  0  0  0  0  0
    8.7585   -0.6287   16.7160 N   0  0  0  0  0  0  0  0  0  0  0  0
    9.8790   -0.4485   17.4449 C   0  0  0  0  0  0  0  0  0  0  0  0
    9.9112    0.2689   18.6250 C   0  0  0  0  0  0  0  0  0  0  0  0
    8.7266    0.8517   19.0697 C   0  0  0  0  0  0  0  0  0  0  0  0
    7.5535    0.6969   18.3315 C   0  0  0  0  0  0  0  0  0  0  0  0
    4.8310   -1.5546   15.2291 O   0  0  0  0  0  0  0  0  0  0  0  0
    4.9385   -2.4998   14.1546 C   0  0  0  0  0  0  0  0  0  0  0  0
    6.2090   -2.3503   13.3004 C   0  0  0  0  0  0  0  0  0  0  0  0
    6.4441   -1.4312   12.5264 O   0  0  0  0  0  0  0  0  0  0  0  0
    7.0452   -3.4255   13.4877 O   0  0  0  0  0  0  0  0  0  0  0  0
    8.4650   -3.1882   13.3652 C   0  0  0  0  0  0  0  0  0  0  0  0
    9.2114   -3.4554   14.6629 C   0  0  0  0  0  0  0  0  0  0  0  0
    2.6241   -0.5869   21.7680 C   0  0  0  0  0  0  0  0  0  0  0  0
    2.9954    0.3541   22.8189 N   0  0  0  0  0  0  0  0  0  0  0  0
    3.2739   -0.1549   23.6551 H   0  0  0  0  0  0  0  0  0  0  0  0
    5.8235    3.1470   21.4796 C   0  0  0  0  0  0  0  0  0  0  0  0
    6.0510    1.7888   21.2926 C   0  0  0  0  0  0  0  0  0  0  0  0
    5.1242    0.8635   21.7639 C   0  0  0  0  0  0  0  0  0  0  0  0
    3.9774    1.2773   22.4450 C   0  0  0  0  0  0  0  0  0  0  0  0
    3.7702    2.6479   22.6431 C   0  0  0  0  0  0  0  0  0  0  0  0
    4.6992    3.5817   22.1820 C   0  0  0  0  0  0  0  0  0  0  0  0
    6.4820    4.6362   19.6418 N   0  0  0  0  0  0  0  0  0  0  0  0
    6.7615    4.1130   20.8726 C   0  0  0  0  0  0  0  0  0  0  0  0
    7.8186    4.4809   21.5205 N   0  0  0  0  0  0  0  0  0  0  0  0
    6.9397    5.5123   19.4278 H   0  0  0  0  0  0  0  0  0  0  0  0
    5.4932    4.6739   19.4093 H   0  0  0  0  0  0  0  0  0  0  0  0
    8.3681    5.1264   20.9510 H   0  0  0  0  0  0  0  0  0  0  0  0
 38 39  1  0  0  0
 38 41  1  0  0  0
 38 42  1  0  0  0
 39 40  2  0  0  0
 39 32  1  0  0  0
 40 43  1  0  0  0
 32 33  1  0  0  0
 32 37  2  0  0  0
 33 34  2  0  0  0
 34 35  1  0  0  0
 35 36  2  0  0  0
 35 30  1  0  0  0
 36 37  1  0  0  0
 30 29  1  0  0  0
 30 31  1  0  0  0
 29  1  1  0  0  0
  1  2  2  0  0  0
  1  5  1  0  0  0
  2  3  1  0  0  0
  3  4  1  0  0  0
  3 10  2  0  0  0
  4  5  1  0  0  0
  4  7  2  0  0  0
  5  6  1  0  0  0
  7  8  1  0  0  0
  8  9  2  0  0  0
  9 10  1  0  0  0
  9 11  1  0  0  0
 11 12  1  0  0  0
 11 13  1  0  0  0
 11 14  1  0  0  0
 12 13  1  0  0  0
 14 15  2  0  0  0
 14 16  1  0  0  0
 15 22  1  0  0  0
 22 23  1  0  0  0
 23 24  1  0  0  0
 24 25  2  0  0  0
 24 26  1  0  0  0
 26 27  1  0  0  0
 27 28  1  0  0  0
 16 17  1  0  0  0
 16 21  2  0  0  0
 17 18  2  0  0  0
 18 19  1  0  0  0
 19 20  2  0  0  0
 20 21  1  0  0  0
M  END
> <minimizedAffinity>
-9.10118

$$$$
data/FXA/cocry_dataset/1g2l_T87_LIG.pdb


 43 47  0  0  0  0  0  0  0  0999 V2000
    1.4566    0.0209   21.2529 C   0  0  0  0  0  0  0  0  0  0  0  0
    1.7268   -0.7150   20.1891 N   0  0  0  0  0  0  0  0  0  0  0  0
    2.5281    0.1360   19.4922 C   0  0  0  0  0  0  0  0  0  0  0  0
    2.2289    1.4612   19.7749 C   0  0  0  0  0  0  0  0  0  0  0  0
    1.2760    1.3273   20.7695 N   0  0  0  0  0  0  0  0  0  0  0  0
   -0.0041    1.9964   20.6141 C   0  0  0  0  0  0  0  0  0  0  0  0
    2.7395    2.5333   19.0424 C   0  0  0  0  0  0  0  0  0  0  0  0
    3.6419    2.1958   18.0267 C   0  0  0  0  0  0  0  0  0  0  0  0
    4.0515    0.8686   17.7980 C   0  0  0  0  0  0  0  0  0  0  0  0
    3.5238   -0.1605   18.5886 C   0  0  0  0  0  0  0  0  0  0  0  0
    4.9239    0.4424   16.6416 C   0  0  0  0  0  0  0  0  0  0  0  0
    4.0997    0.0106   15.4087 C   0  0  0  0  0  0  0  0  0  0  0  0
    4.9592   -0.9795   16.1099 C   0  0  0  0  0  0  0  0  0  0  0  0
    6.1920    1.2770   16.5105 C   0  0  0  0  0  0  0  0  0  0  0  0
    6.2770    2.3451   15.7508 N   0  0  0  0  0  0  0  0  0  0  0  0
    7.4186    0.7877   17.2284 C   0  0  0  0  0  0  0  0  0  0  0  0
    8.3453    0.1157   16.4914 N   0  0  0  0  0  0  0  0  0  0  0  0
    9.4574   -0.3151   17.1216 C   0  0  0  0  0  0  0  0  0  0  0  0
    9.6942   -0.1152   18.4678 C   0  0  0  0  0  0  0  0  0  0  0  0
    8.7416    0.5864   19.2033 C   0  0  0  0  0  0  0  0  0  0  0  0
    7.5874    1.0583   18.5786 C   0  0  0  0  0  0  0  0  0  0  0  0
    5.0979    2.6480   15.0239 O   0  0  0  0  0  0  0  0  0  0  0  0
    5.1528    4.0114   14.5793 C   0  0  0  0  0  0  0  0  0  0  0  0
    5.5929    5.0153   15.6584 C   0  0  0  0  0  0  0  0  0  0  0  0
    5.3494    4.9286   16.8552 O   0  0  0  0  0  0  0  0  0  0  0  0
    6.2712    6.0676   15.0901 O   0  0  0  0  0  0  0  0  0  0  0  0
    7.1392    5.7694   13.9743 C   0  0  0  0  0  0  0  0  0  0  0  0
    8.4186    6.5911   13.9994 C   0  0  0  0  0  0  0  0  0  0  0  0
    2.2494   -0.3191   22.5073 C   0  0  0  0  0  0  0  0  0  0  0  0
    2.7115    0.7651   23.3668 N   0  0  0  0  0  0  0  0  0  0  0  0
    2.9788    0.3944   24.2762 H   0  0  0  0  0  0  0  0  0  0  0  0
    5.6674    3.0933   21.5136 C   0  0  0  0  0  0  0  0  0  0  0  0
    5.7363    1.7069   21.4464 C   0  0  0  0  0  0  0  0  0  0  0  0
    4.7698    0.9370   22.0868 C   0  0  0  0  0  0  0  0  0  0  0  0
    3.7419    1.5357   22.8184 C   0  0  0  0  0  0  0  0  0  0  0  0
    3.6954    2.9332   22.8936 C   0  0  0  0  0  0  0  0  0  0  0  0
    4.6660    3.7122   22.2623 C   0  0  0  0  0  0  0  0  0  0  0  0
    6.3943    4.1323   19.4110 N   0  0  0  0  0  0  0  0  0  0  0  0
    6.6362    3.8899   20.7336 C   0  0  0  0  0  0  0  0  0  0  0  0
    7.6847    4.3783   21.3121 N   0  0  0  0  0  0  0  0  0  0  0  0
    6.8723    4.9339   19.0214 H   0  0  0  0  0  0  0  0  0  0  0  0
    5.4118    4.1302   19.1501 H   0  0  0  0  0  0  0  0  0  0  0  0
    8.2585    4.8754   20.6290 H   0  0  0  0  0  0  0  0  0  0  0  0
 38 39  1  0  0  0
 38 41  1  0  0  0
 38 42  1  0  0  0
 39 40  2  0  0  0
 39 32  1  0  0  0
 40 43  1  0  0  0
 32 33  1  0  0  0
 32 37  2  0  0  0
 33 34  2  0  0  0
 34 35  1  0  0  0
 35 36  2  0  0  0
 35 30  1  0  0  0
 36 37  1  0  0  0
 30 29  1  0  0  0
 30 31  1  0  0  0
 29  1  1  0  0  0
  1  2  2  0  0  0
  1  5  1  0  0  0
  2  3  1  0  0  0
  3  4  1  0  0  0
  3 10  2  0  0  0
  4  5  1  0  0  0
  4  7  2  0  0  0
  5  6  1  0  0  0
  7  8  1  0  0  0
  8  9  2  0  0  0
  9 10  1  0  0  0
  9 11  1  0  0  0
 11 12  1  0  0  0
 11 13  1  0  0  0
 11 14  1  0  0  0
 12 13  1  0  0  0
 14 15  2  0  0  0
 14 16  1  0  0  0
 15 22  1  0  0  0
 22 23  1  0  0  0
 23 24  1  0  0  0
 24 25  2  0  0  0
 24 26  1  0  0  0
 26 27  1  0  0  0
 27 28  1  0  0  0
 16 17  1  0  0  0
 16 21  2  0  0  0
 17 18  2  0  0  0
 18 19  1  0  0  0
 19 20  2  0  0  0
 20 21  1  0  0  0
M  END
> <minimizedAffinity>
-9.06850

$$$$
data/FXA/cocry_dataset/1g2l_T87_LIG.pdb


 43 47  0  0  0  0  0  0  0  0999 V2000
    4.8944    6.5060   15.7757 C   0  0  0  0  0  0  0  0  0  0  0  0
    5.2182    5.9797   16.9438 N   0  0  0  0  0  0  0  0  0  0  0  0
    4.7825    4.7018   16.7727 C   0  0  0  0  0  0  0  0  0  0  0  0
    3.7239    4.6419   15.8774 C   0  0  0  0  0  0  0  0  0  0  0  0
    3.6439    5.9555   15.4497 N   0  0  0  0  0  0  0  0  0  0  0  0
    2.3709    6.6498   15.5393 C   0  0  0  0  0  0  0  0  0  0  0  0
    2.9474    3.4984   15.6872 C   0  0  0  0  0  0  0  0  0  0  0  0
    3.3443    2.3705   16.4155 C   0  0  0  0  0  0  0  0  0  0  0  0
    4.4855    2.3734   17.2396 C   0  0  0  0  0  0  0  0  0  0  0  0
    5.2410    3.5465   17.3651 C   0  0  0  0  0  0  0  0  0  0  0  0
    4.8819    1.2244   18.1355 C   0  0  0  0  0  0  0  0  0  0  0  0
    3.7695    0.8475   19.1387 C   0  0  0  0  0  0  0  0  0  0  0  0
    5.0702    1.3694   19.6353 C   0  0  0  0  0  0  0  0  0  0  0  0
    5.7120    0.1667   17.4186 C   0  0  0  0  0  0  0  0  0  0  0  0
    5.1898   -0.7583   16.6461 N   0  0  0  0  0  0  0  0  0  0  0  0
    7.1902    0.1472   17.6901 C   0  0  0  0  0  0  0  0  0  0  0  0
    7.9825   -0.4835   16.7802 N   0  0  0  0  0  0  0  0  0  0  0  0
    9.3124   -0.4945   17.0053 C   0  0  0  0  0  0  0  0  0  0  0  0
    9.9016    0.0916   18.1088 C   0  0  0  0  0  0  0  0  0  0  0  0
    9.0769    0.7444   19.0223 C   0  0  0  0  0  0  0  0  0  0  0  0
    7.6990    0.7867   18.8113 C   0  0  0  0  0  0  0  0  0  0  0  0
    3.7753   -0.7225   16.5554 O   0  0  0  0  0  0  0  0  0  0  0  0
    3.2858   -2.0397   16.2640 C   0  0  0  0  0  0  0  0  0  0  0  0
    3.7007   -2.5821   14.8857 C   0  0  0  0  0  0  0  0  0  0  0  0
    3.3180   -2.1517   13.8051 O   0  0  0  0  0  0  0  0  0  0  0  0
    4.5392   -3.6627   15.0252 O   0  0  0  0  0  0  0  0  0  0  0  0
    5.7312   -3.6844   14.2090 C   0  0  0  0  0  0  0  0  0  0  0  0
    6.9995   -3.5163   15.0311 C   0  0  0  0  0  0  0  0  0  0  0  0
    6.0389    6.6621   14.7840 C   0  0  0  0  0  0  0  0  0  0  0  0
    5.8631    6.1764   13.4198 N   0  0  0  0  0  0  0  0  0  0  0  0
    6.5618    6.5972   12.8111 H   0  0  0  0  0  0  0  0  0  0  0  0
    5.7194    1.9881   13.2476 C   0  0  0  0  0  0  0  0  0  0  0  0
    6.6983    2.6155   14.0088 C   0  0  0  0  0  0  0  0  0  0  0  0
    6.7609    4.0054   14.0408 C   0  0  0  0  0  0  0  0  0  0  0  0
    5.8687    4.7829   13.2993 C   0  0  0  0  0  0  0  0  0  0  0  0
    4.8995    4.1374   12.5216 C   0  0  0  0  0  0  0  0  0  0  0  0
    4.8358    2.7440   12.4767 C   0  0  0  0  0  0  0  0  0  0  0  0
    4.7482   -0.1278   12.4675 N   0  0  0  0  0  0  0  0  0  0  0  0
    5.6003    0.5176   13.3184 C   0  0  0  0  0  0  0  0  0  0  0  0
    6.3237   -0.1491   14.1579 N   0  0  0  0  0  0  0  0  0  0  0  0
    4.9475   -1.1073   12.3129 H   0  0  0  0  0  0  0  0  0  0  0  0
    4.5778    0.3536   11.5886 H   0  0  0  0  0  0  0  0  0  0  0  0
    6.0997   -1.1436   14.0963 H   0  0  0  0  0  0  0  0  0  0  0  0
 38 39  1  0  0  0
 38 41  1  0  0  0
 38 42  1  0  0  0
 39 40  2  0  0  0
 39 32  1  0  0  0
 40 43  1  0  0  0
 32 33  1  0  0  0
 32 37  2  0  0  0
 33 34  2  0  0  0
 34 35  1  0  0  0
 35 36  2  0  0  0
 35 30  1  0  0  0
 36 37  1  0  0  0
 30 29  1  0  0  0
 30 31  1  0  0  0
 29  1  1  0  0  0
  1  2  2  0  0  0
  1  5  1  0  0  0
  2  3  1  0  0  0
  3  4  1  0  0  0
  3 10  2  0  0  0
  4  5  1  0  0  0
  4  7  2  0  0  0
  5  6  1  0  0  0
  7  8  1  0  0  0
  8  9  2  0  0  0
  9 10  1  0  0  0
  9 11  1  0  0  0
 11 12  1  0  0  0
 11 13  1  0  0  0
 11 14  1  0  0  0
 12 13  1  0  0  0
 14 15  2  0  0  0
 14 16  1  0  0  0
 15 22  1  0  0  0
 22 23  1  0  0  0
 23 24  1  0  0  0
 24 25  2  0  0  0
 24 26  1  0  0  0
 26 27  1  0  0  0
 27 28  1  0  0  0
 16 17  1  0  0  0
 16 21  2  0  0  0
 17 18  2  0  0  0
 18 19  1  0  0  0
 19 20  2  0  0  0
 20 21  1  0  0  0
M  END
> <minimizedAffinity>
-9.03418

$$$$
