data/FXA/cocry_dataset/1g2l_T87_LIG.pdb
 OpenBabel03092321123D

 43 47  0  0  0  0  0  0  0  0999 V2000
    1.8682   -0.0726   20.5508 C   0  0  0  0  0  0  0  0  0  0  0  0
    2.1659   -0.6577   19.4040 N   0  0  0  0  0  0  0  0  0  0  0  0
    2.9893    0.2751   18.8526 C   0  0  0  0  0  0  0  0  0  0  0  0
    2.6866    1.5511   19.3061 C   0  0  0  0  0  0  0  0  0  0  0  0
    1.7056    1.2890   20.2464 N   0  0  0  0  0  0  0  0  0  0  0  0
    0.4326    1.9822   20.1490 C   0  0  0  0  0  0  0  0  0  0  0  0
    3.2212    2.7098   18.7419 C   0  0  0  0  0  0  0  0  0  0  0  0
    4.1508    2.5082   17.7147 C   0  0  0  0  0  0  0  0  0  0  0  0
    4.5623    1.2220   17.3175 C   0  0  0  0  0  0  0  0  0  0  0  0
    4.0092    0.0980   17.9446 C   0  0  0  0  0  0  0  0  0  0  0  0
    5.4656    0.9520   16.1380 C   0  0  0  0  0  0  0  0  0  0  0  0
    5.9772    2.2510   15.4773 C   0  0  0  0  0  0  0  0  0  0  0  0
    5.1007    1.3253   14.7120 C   0  0  0  0  0  0  0  0  0  0  0  0
    6.3693   -0.2577   16.3420 C   0  0  0  0  0  0  0  0  0  0  0  0
    6.0797   -1.4579   15.8939 N   0  0  0  0  0  0  0  0  0  0  0  0
    7.6070   -0.0635   17.1724 C   0  0  0  0  0  0  0  0  0  0  0  0
    8.7585   -0.6287   16.7160 N   0  0  0  0  0  0  0  0  0  0  0  0
    9.8790   -0.4485   17.4449 C   0  0  0  0  0  0  0  0  0  0  0  0
    9.9112    0.2689   18.6250 C   0  0  0  0  0  0  0  0  0  0  0  0
    8.7266    0.8517   19.0697 C   0  0  0  0  0  0  0  0  0  0  0  0
    7.5535    0.6969   18.3315 C   0  0  0  0  0  0  0  0  0  0  0  0
    4.8310   -1.5546   15.2291 O   0  0  0  0  0  0  0  0  0  0  0  0
    4.9385   -2.4998   14.1546 C   0  0  0  0  0  0  0  0  0  0  0  0
    6.2090   -2.3503   13.3004 C   0  0  0  0  0  0  0  0  0  0  0  0
    6.4441   -1.4312   12.5264 O   0  0  0  0  0  0  0  0  0  0  0  0
    7.0452   -3.4255   13.4877 O   0  0  0  0  0  0  0  0  0  0  0  0
    8.4650   -3.1882   13.3652 C   0  0  0  0  0  0  0  0  0  0  0  0
    9.2114   -3.4554   14.6629 C   0  0  0  0  0  0  0  0  0  0  0  0
    2.6241   -0.5869   21.7680 C   0  0  0  0  0  0  0  0  0  0  0  0
    2.9954    0.3541   22.8189 N   0  0  0  0  0  0  0  0  0  0  0  0
    3.2739   -0.1549   23.6551 H   0  0  0  0  0  0  0  0  0  0  0  0
    5.8235    3.1470   21.4796 C   0  0  0  0  0  0  0  0  0  0  0  0
    6.0510    1.7888   21.2926 C   0  0  0  0  0  0  0  0  0  0  0  0
    5.1242    0.8635   21.7639 C   0  0  0  0  0  0  0  0  0  0  0  0
    3.9774    1.2773   22.4450 C   0  0  0  0  0  0  0  0  0  0  0  0
    3.7702    2.6479   22.6431 C   0  0  0  0  0  0  0  0  0  0  0  0
    4.6992    3.5817   22.1820 C   0  0  0  0  0  0  0  0  0  0  0  0
    6.4820    4.6362   19.6418 N   0  0  0  0  0  0  0  0  0  0  0  0
    6.7615    4.1130   20.8726 C   0  0  0  0  0  0  0  0  0  0  0  0
    7.8186    4.4809   21.5205 N   0  0  0  0  0  0  0  0  0  0  0  0
    6.9397    5.5123   19.4278 H   0  0  0  0  0  0  0  0  0  0  0  0
    5.4932    4.6739   19.4093 H   0  0  0  0  0  0  0  0  0  0  0  0
    8.3681    5.1264   20.9510 H   0  0  0  0  0  0  0  0  0  0  0  0
  1  2  2  0  0  0  0
  1  5  1  0  0  0  0
  2  3  1  0  0  0  0
  3  4  1  0  0  0  0
  3 10  2  0  0  0  0
  4  5  1  0  0  0  0
  4  7  2  0  0  0  0
  5  6  1  0  0  0  0
  7  8  1  0  0  0  0
  8  9  2  0  0  0  0
  9 10  1  0  0  0  0
  9 11  1  0  0  0  0
 11 12  1  0  0  0  0
 11 13  1  0  0  0  0
 11 14  1  0  0  0  0
 12 13  1  0  0  0  0
 14 15  2  0  0  0  0
 14 16  1  0  0  0  0
 15 22  1  0  0  0  0
 16 17  1  0  0  0  0
 16 21  2  0  0  0  0
 17 18  2  0  0  0  0
 18 19  1  0  0  0  0
 19 20  2  0  0  0  0
 20 21  1  0  0  0  0
 22 23  1  0  0  0  0
 23 24  1  0  0  0  0
 24 25  2  0  0  0  0
 24 26  1  0  0  0  0
 26 27  1  0  0  0  0
 27 28  1  0  0  0  0
 29  1  1  0  0  0  0
 30 29  1  0  0  0  0
 30 31  1  0  0  0  0
 32 33  1  0  0  0  0
 32 37  2  0  0  0  0
 33 34  2  0  0  0  0
 34 35  1  0  0  0  0
 35 36  2  0  0  0  0
 35 30  1  0  0  0  0
 36 37  1  0  0  0  0
 38 39  1  0  0  0  0
 38 41  1  0  0  0  0
 38 42  1  0  0  0  0
 39 40  2  0  0  0  0
 39 32  1  0  0  0  0
 40 43  1  0  0  0  0
M  END
>  <minimizedAffinity>
-9.10118

$$$$
