data/FXA/cocry_dataset/1g2m_R11_LIG.pdb
 OpenBabel03092321123D

 36 40  0  0  0  0  0  0  0  0999 V2000
    4.4846    5.7666   20.4761 C   0  0  0  0  0  0  0  0  0  0  0  0
    4.5382    5.2336   19.2632 N   0  0  0  0  0  0  0  0  0  0  0  0
    5.6028    4.3936   19.3989 C   0  0  0  0  0  0  0  0  0  0  0  0
    6.4584    4.8384   20.4043 C   0  0  0  0  0  0  0  0  0  0  0  0
    5.8070    5.9664   20.8510 N   0  0  0  0  0  0  0  0  0  0  0  0
    6.4367    7.2198   21.1832 C   0  0  0  0  0  0  0  0  0  0  0  0
    7.6219    4.1660   20.7783 C   0  0  0  0  0  0  0  0  0  0  0  0
    7.7534    2.8797   20.2438 C   0  0  0  0  0  0  0  0  0  0  0  0
    6.8284    2.3466   19.3193 C   0  0  0  0  0  0  0  0  0  0  0  0
    5.8149    3.1590   18.7926 C   0  0  0  0  0  0  0  0  0  0  0  0
    3.4507    5.2362   21.4588 C   0  0  0  0  0  0  0  0  0  0  0  0
    3.9601    4.5654   22.6378 N   0  0  0  0  0  0  0  0  0  0  0  0
    4.0320    5.1525   23.4615 H   0  0  0  0  0  0  0  0  0  0  0  0
    3.3134    0.4400   23.0298 C   0  0  0  0  0  0  0  0  0  0  0  0
    2.5388    1.3345   23.7525 C   0  0  0  0  0  0  0  0  0  0  0  0
    2.7781    2.7017   23.6451 C   0  0  0  0  0  0  0  0  0  0  0  0
    3.7803    3.2093   22.8092 C   0  0  0  0  0  0  0  0  0  0  0  0
    4.5802    2.2853   22.1101 C   0  0  0  0  0  0  0  0  0  0  0  0
    4.3511    0.9090   22.2279 C   0  0  0  0  0  0  0  0  0  0  0  0
    3.2877   -1.6669   24.3089 N   0  0  0  0  0  0  0  0  0  0  0  0
    3.0255   -1.0177   23.1379 C   0  0  0  0  0  0  0  0  0  0  0  0
    2.5235   -1.6459   22.1346 N   0  0  0  0  0  0  0  0  0  0  0  0
    2.8183   -2.5531   24.4346 H   0  0  0  0  0  0  0  0  0  0  0  0
    3.2353   -1.0951   25.1542 H   0  0  0  0  0  0  0  0  0  0  0  0
    2.4334   -2.6348   22.3574 H   0  0  0  0  0  0  0  0  0  0  0  0
    6.7653    0.8557   19.1135 C   0  0  0  0  0  0  0  0  0  0  0  0
    7.3330    0.3655   17.8689 N   0  0  0  0  0  0  0  0  0  0  0  0
    6.6086   -0.1647   16.8167 C   0  0  0  0  0  0  0  0  0  0  0  0
    7.3386   -1.0307   16.1423 N   0  0  0  0  0  0  0  0  0  0  0  0
    8.5689   -1.0363   16.7469 C   0  0  0  0  0  0  0  0  0  0  0  0
    8.6301   -0.0930   17.7635 C   0  0  0  0  0  0  0  0  0  0  0  0
    9.7919    0.1506   18.5063 C   0  0  0  0  0  0  0  0  0  0  0  0
   10.8978   -0.6613   18.2331 C   0  0  0  0  0  0  0  0  0  0  0  0
   10.8359   -1.6673   17.2667 C   0  0  0  0  0  0  0  0  0  0  0  0
    9.6792   -1.8546   16.5002 C   0  0  0  0  0  0  0  0  0  0  0  0
    5.1705    0.1030   16.5520 C   0  0  0  0  0  0  0  0  0  0  0  0
  1  2  2  0  0  0  0
  1  5  1  0  0  0  0
  2  3  1  0  0  0  0
  3  4  1  0  0  0  0
  3 10  2  0  0  0  0
  4  5  1  0  0  0  0
  4  7  2  0  0  0  0
  5  6  1  0  0  0  0
  7  8  1  0  0  0  0
  8  9  2  0  0  0  0
  9 10  1  0  0  0  0
  9 26  1  0  0  0  0
 11  1  1  0  0  0  0
 12 11  1  0  0  0  0
 12 13  1  0  0  0  0
 14 15  1  0  0  0  0
 14 19  2  0  0  0  0
 15 16  2  0  0  0  0
 16 17  1  0  0  0  0
 17 18  2  0  0  0  0
 17 12  1  0  0  0  0
 18 19  1  0  0  0  0
 20 21  1  0  0  0  0
 20 23  1  0  0  0  0
 20 24  1  0  0  0  0
 21 22  2  0  0  0  0
 21 14  1  0  0  0  0
 22 25  1  0  0  0  0
 26 27  1  0  0  0  0
 27 28  1  0  0  0  0
 27 31  1  0  0  0  0
 28 29  2  0  0  0  0
 28 36  1  0  0  0  0
 29 30  1  0  0  0  0
 30 31  1  0  0  0  0
 30 35  2  0  0  0  0
 31 32  2  0  0  0  0
 32 33  1  0  0  0  0
 33 34  2  0  0  0  0
 34 35  1  0  0  0  0
M  END
>  <minimizedAffinity>
-9.61944

$$$$
