data/FXA/cocry_dataset/1g2m_R11_LIG.pdb
 OpenBabel03092321123D

 36 40  0  0  0  0  0  0  0  0999 V2000
    5.2445    6.5253   19.9669 C   0  0  0  0  0  0  0  0  0  0  0  0
    6.4785    6.0423   20.0144 N   0  0  0  0  0  0  0  0  0  0  0  0
    6.2848    4.9164   20.7576 C   0  0  0  0  0  0  0  0  0  0  0  0
    5.1619    5.0484   21.5715 C   0  0  0  0  0  0  0  0  0  0  0  0
    4.7121    6.3045   21.2306 N   0  0  0  0  0  0  0  0  0  0  0  0
    4.2247    7.2979   22.1545 C   0  0  0  0  0  0  0  0  0  0  0  0
    4.7092    4.0444   22.4275 C   0  0  0  0  0  0  0  0  0  0  0  0
    5.3150    2.7971   22.2404 C   0  0  0  0  0  0  0  0  0  0  0  0
    6.3716    2.5992   21.3245 C   0  0  0  0  0  0  0  0  0  0  0  0
    6.9491    3.6966   20.6713 C   0  0  0  0  0  0  0  0  0  0  0  0
    4.4224    6.2982   18.7066 C   0  0  0  0  0  0  0  0  0  0  0  0
    5.1121    6.4647   17.4431 N   0  0  0  0  0  0  0  0  0  0  0  0
    5.8105    7.1999   17.4353 H   0  0  0  0  0  0  0  0  0  0  0  0
    5.7324    3.2128   14.8681 C   0  0  0  0  0  0  0  0  0  0  0  0
    5.9258    4.5067   14.4091 C   0  0  0  0  0  0  0  0  0  0  0  0
    5.6871    5.5849   15.2566 C   0  0  0  0  0  0  0  0  0  0  0  0
    5.2655    5.4013   16.5793 C   0  0  0  0  0  0  0  0  0  0  0  0
    5.0402    4.0824   17.0176 C   0  0  0  0  0  0  0  0  0  0  0  0
    5.2653    2.9969   16.1623 C   0  0  0  0  0  0  0  0  0  0  0  0
    6.3904    0.8689   14.4816 N   0  0  0  0  0  0  0  0  0  0  0  0
    6.0179    2.0710   13.9546 C   0  0  0  0  0  0  0  0  0  0  0  0
    5.8996    2.2248   12.6836 N   0  0  0  0  0  0  0  0  0  0  0  0
    6.2878    0.0705   13.8705 H   0  0  0  0  0  0  0  0  0  0  0  0
    6.0375    0.6674   15.4192 H   0  0  0  0  0  0  0  0  0  0  0  0
    6.1747    1.3692   12.2061 H   0  0  0  0  0  0  0  0  0  0  0  0
    6.6874    1.2045   20.8511 C   0  0  0  0  0  0  0  0  0  0  0  0
    6.7311    1.0216   19.4102 N   0  0  0  0  0  0  0  0  0  0  0  0
    5.6516    0.6757   18.6176 C   0  0  0  0  0  0  0  0  0  0  0  0
    6.0545    0.0180   17.5485 N   0  0  0  0  0  0  0  0  0  0  0  0
    7.4219   -0.0332   17.6320 C   0  0  0  0  0  0  0  0  0  0  0  0
    7.8822    0.6801   18.7303 C   0  0  0  0  0  0  0  0  0  0  0  0
    9.2434    0.8388   19.0182 C   0  0  0  0  0  0  0  0  0  0  0  0
   10.1472    0.1750   18.1820 C   0  0  0  0  0  0  0  0  0  0  0  0
    9.7040   -0.6100   17.1156 C   0  0  0  0  0  0  0  0  0  0  0  0
    8.3397   -0.7086   16.8167 C   0  0  0  0  0  0  0  0  0  0  0  0
    4.2261    0.8987   18.9750 C   0  0  0  0  0  0  0  0  0  0  0  0
  1  2  2  0  0  0  0
  1  5  1  0  0  0  0
  2  3  1  0  0  0  0
  3  4  1  0  0  0  0
  3 10  2  0  0  0  0
  4  5  1  0  0  0  0
  4  7  2  0  0  0  0
  5  6  1  0  0  0  0
  7  8  1  0  0  0  0
  8  9  2  0  0  0  0
  9 10  1  0  0  0  0
  9 26  1  0  0  0  0
 11  1  1  0  0  0  0
 12 11  1  0  0  0  0
 12 13  1  0  0  0  0
 14 15  1  0  0  0  0
 14 19  2  0  0  0  0
 15 16  2  0  0  0  0
 16 17  1  0  0  0  0
 17 18  2  0  0  0  0
 17 12  1  0  0  0  0
 18 19  1  0  0  0  0
 20 21  1  0  0  0  0
 20 23  1  0  0  0  0
 20 24  1  0  0  0  0
 21 22  2  0  0  0  0
 21 14  1  0  0  0  0
 22 25  1  0  0  0  0
 26 27  1  0  0  0  0
 27 28  1  0  0  0  0
 27 31  1  0  0  0  0
 28 29  2  0  0  0  0
 28 36  1  0  0  0  0
 29 30  1  0  0  0  0
 30 31  1  0  0  0  0
 30 35  2  0  0  0  0
 31 32  2  0  0  0  0
 32 33  1  0  0  0  0
 33 34  2  0  0  0  0
 34 35  1  0  0  0  0
M  END
>  <minimizedAffinity>
-10.06449

$$$$
