data/FXA/cocry_dataset/1ioe_XMA_LIG.pdb
 OpenBabel03092321123D

 38 43  0  0  0  0  0  0  0  0999 V2000
    3.4451    3.7825   20.3994 N   0  0  0  0  0  0  0  0  0  0  0  0
    2.2055    4.5317   20.0905 C   0  0  0  0  0  0  0  0  0  0  0  0
    1.1627    4.5217   21.2445 C   0  0  0  0  0  0  0  0  0  0  0  0
   -0.0294    4.2833   21.0697 O   0  0  0  0  0  0  0  0  0  0  0  0
    1.6630    4.8216   22.5092 N   0  0  0  0  0  0  0  0  0  0  0  0
    2.8688    4.1069   22.8792 C   0  0  1  0  0  0  0  0  0  0  0  0
    3.3109    3.1086   21.7314 C   0  0  0  0  0  0  0  0  0  0  0  0
    3.8546    5.1480   23.1730 O   0  0  0  0  0  0  0  0  0  0  0  0
    3.3311    6.4825   22.8861 C   0  0  0  0  0  0  0  0  0  0  0  0
    1.8159    6.2269   22.8250 C   0  0  0  0  0  0  0  0  0  0  0  0
    3.7015    7.4922   23.9805 C   0  0  0  0  0  0  0  0  0  0  0  0
    5.1943    7.8437   24.0333 C   0  0  0  0  0  0  0  0  0  0  0  0
    5.7697    8.3168   22.7584 N   0  0  0  0  0  0  0  0  0  0  0  0
    5.2331    7.7467   21.5238 C   0  0  0  0  0  0  0  0  0  0  0  0
    3.8036    7.1972   21.5927 C   0  0  0  0  0  0  0  0  0  0  0  0
    7.1836    8.5367   22.7996 C   0  0  0  0  0  0  0  0  0  0  0  0
    7.9273    8.6912   23.9830 C   0  0  0  0  0  0  0  0  0  0  0  0
    9.2985    8.9618   23.9353 C   0  0  0  0  0  0  0  0  0  0  0  0
   10.0096    9.0524   22.8002 N   0  0  0  0  0  0  0  0  0  0  0  0
    9.3137    8.8477   21.6659 C   0  0  0  0  0  0  0  0  0  0  0  0
    7.9430    8.5901   21.6228 C   0  0  0  0  0  0  0  0  0  0  0  0
    5.0755    4.0757   20.1035 S   0  0  0  0  0  0  0  0  0  0  0  0
    5.6636    4.2225   21.4197 O   0  0  0  0  0  0  0  0  0  0  0  0
    5.1408    5.2103   19.2104 O   0  0  0  0  0  0  0  0  0  0  0  0
    7.3530    2.4749   19.6133 C   0  0  0  0  0  0  0  0  0  0  0  0
    6.0410    2.8187   19.3190 C   0  0  0  0  0  0  0  0  0  0  0  0
    5.3739    2.1707   18.2541 C   0  0  0  0  0  0  0  0  0  0  0  0
    5.9972    1.1679   17.5217 C   0  0  0  0  0  0  0  0  0  0  0  0
    7.3004    0.7941   17.8240 C   0  0  0  0  0  0  0  0  0  0  0  0
    8.0037    1.4584   18.8693 C   0  0  0  0  0  0  0  0  0  0  0  0
    9.3372    1.0850   19.0835 C   0  0  0  0  0  0  0  0  0  0  0  0
    9.9513    0.0708   18.3318 C   0  0  0  0  0  0  0  0  0  0  0  0
    9.2369   -0.5874   17.3347 C   0  0  0  0  0  0  0  0  0  0  0  0
    9.9820   -1.8515   16.4349 Cl  0  0  0  0  0  0  0  0  0  0  0  0
    7.9234   -0.2236   17.0756 C   0  0  0  0  0  0  0  0  0  0  0  0
    2.6511    3.0740   24.0591 C   0  0  0  0  0  0  0  0  0  0  0  0
    1.3294    2.8364   24.5294 O   0  0  0  0  0  0  0  0  0  0  0  0
    0.7454    1.6766   23.9711 C   0  0  0  0  0  0  0  0  0  0  0  0
  1  2  1  0  0  0  0
  1  7  1  0  0  0  0
  2  3  1  0  0  0  0
  3  5  1  0  0  0  0
  3  4  2  0  0  0  0
  5  6  1  0  0  0  0
  5 10  1  0  0  0  0
  6  7  1  0  0  0  0
  6  8  1  0  0  0  0
  6 36  1  1  0  0  0
  8  9  1  0  0  0  0
  9 10  1  0  0  0  0
  9 11  1  0  0  0  0
  9 15  1  0  0  0  0
 11 12  1  0  0  0  0
 12 13  1  0  0  0  0
 13 14  1  0  0  0  0
 13 16  1  0  0  0  0
 14 15  1  0  0  0  0
 16 17  1  0  0  0  0
 16 21  2  0  0  0  0
 17 18  2  0  0  0  0
 18 19  1  0  0  0  0
 19 20  2  0  0  0  0
 20 21  1  0  0  0  0
 22 23  2  0  0  0  0
 22 24  2  0  0  0  0
 22  1  1  0  0  0  0
 25 26  1  0  0  0  0
 25 30  2  0  0  0  0
 26 27  2  0  0  0  0
 26 22  1  0  0  0  0
 27 28  1  0  0  0  0
 28 29  2  0  0  0  0
 29 30  1  0  0  0  0
 29 35  1  0  0  0  0
 30 31  1  0  0  0  0
 31 32  2  0  0  0  0
 32 33  1  0  0  0  0
 33 34  1  0  0  0  0
 33 35  2  0  0  0  0
 36 37  1  0  0  0  0
 37 38  1  0  0  0  0
M  END
>  <minimizedAffinity>
-9.82892

$$$$
