data/FXA/cocry_dataset/1ioe_XMA_LIG.pdb
 OpenBabel03092321123D

 38 43  0  0  0  0  0  0  0  0999 V2000
    4.1815    2.5860   19.3545 N   0  0  0  0  0  0  0  0  0  0  0  0
    2.8654    2.9518   18.7823 C   0  0  0  0  0  0  0  0  0  0  0  0
    1.7259    3.0404   19.8372 C   0  0  0  0  0  0  0  0  0  0  0  0
    0.6230    2.5235   19.6787 O   0  0  0  0  0  0  0  0  0  0  0  0
    2.0258    3.7679   20.9863 N   0  0  0  0  0  0  0  0  0  0  0  0
    3.2960    3.4443   21.6053 C   0  0  1  0  0  0  0  0  0  0  0  0
    4.0328    2.2855   20.8153 C   0  0  0  0  0  0  0  0  0  0  0  0
    4.0375    4.7056   21.6373 O   0  0  0  0  0  0  0  0  0  0  0  0
    3.3116    5.7751   20.9543 C   0  0  0  0  0  0  0  0  0  0  0  0
    1.8841    5.2064   20.8933 C   0  0  0  0  0  0  0  0  0  0  0  0
    3.3725    7.0973   21.7305 C   0  0  0  0  0  0  0  0  0  0  0  0
    4.7614    7.7494   21.7549 C   0  0  0  0  0  0  0  0  0  0  0  0
    5.3721    7.9673   20.4283 N   0  0  0  0  0  0  0  0  0  0  0  0
    5.0830    6.9863   19.3836 C   0  0  0  0  0  0  0  0  0  0  0  0
    3.7793    6.1941   19.5356 C   0  0  0  0  0  0  0  0  0  0  0  0
    6.7093    8.4762   20.4753 C   0  0  0  0  0  0  0  0  0  0  0  0
    7.8591    7.6737   20.5812 C   0  0  0  0  0  0  0  0  0  0  0  0
    9.1282    8.2529   20.6806 C   0  0  0  0  0  0  0  0  0  0  0  0
    9.3582    9.5750   20.6420 N   0  0  0  0  0  0  0  0  0  0  0  0
    8.2659   10.3459   20.4824 C   0  0  0  0  0  0  0  0  0  0  0  0
    6.9640    9.8519   20.3925 C   0  0  0  0  0  0  0  0  0  0  0  0
    5.7526    3.1170   19.0688 S   0  0  0  0  0  0  0  0  0  0  0  0
    6.2013    3.6306   20.3473 O   0  0  0  0  0  0  0  0  0  0  0  0
    5.6858    4.0433   17.9611 O   0  0  0  0  0  0  0  0  0  0  0  0
    6.8645    0.9522   17.6311 C   0  0  0  0  0  0  0  0  0  0  0  0
    6.9829    1.9347   18.6042 C   0  0  0  0  0  0  0  0  0  0  0  0
    8.1651    2.0109   19.3759 C   0  0  0  0  0  0  0  0  0  0  0  0
    9.2261    1.1427   19.1502 C   0  0  0  0  0  0  0  0  0  0  0  0
    9.1321    0.1729   18.1602 C   0  0  0  0  0  0  0  0  0  0  0  0
    7.9365    0.0550   17.3951 C   0  0  0  0  0  0  0  0  0  0  0  0
    7.8747   -0.9847   16.4577 C   0  0  0  0  0  0  0  0  0  0  0  0
    8.9563   -1.8541   16.2448 C   0  0  0  0  0  0  0  0  0  0  0  0
   10.1275   -1.7029   16.9818 C   0  0  0  0  0  0  0  0  0  0  0  0
   11.4634   -2.7505   16.6978 Cl  0  0  0  0  0  0  0  0  0  0  0  0
   10.2132   -0.7024   17.9392 C   0  0  0  0  0  0  0  0  0  0  0  0
    3.1477    2.7477   23.0193 C   0  0  0  0  0  0  0  0  0  0  0  0
    3.1485    3.5587   24.1884 O   0  0  0  0  0  0  0  0  0  0  0  0
    1.8916    4.1501   24.4504 C   0  0  0  0  0  0  0  0  0  0  0  0
  1  2  1  0  0  0  0
  1  7  1  0  0  0  0
  2  3  1  0  0  0  0
  3  5  1  0  0  0  0
  3  4  2  0  0  0  0
  5  6  1  0  0  0  0
  5 10  1  0  0  0  0
  6  7  1  0  0  0  0
  6  8  1  0  0  0  0
  6 36  1  1  0  0  0
  8  9  1  0  0  0  0
  9 10  1  0  0  0  0
  9 11  1  0  0  0  0
  9 15  1  0  0  0  0
 11 12  1  0  0  0  0
 12 13  1  0  0  0  0
 13 14  1  0  0  0  0
 13 16  1  0  0  0  0
 14 15  1  0  0  0  0
 16 17  1  0  0  0  0
 16 21  2  0  0  0  0
 17 18  2  0  0  0  0
 18 19  1  0  0  0  0
 19 20  2  0  0  0  0
 20 21  1  0  0  0  0
 22 23  2  0  0  0  0
 22 24  2  0  0  0  0
 22  1  1  0  0  0  0
 25 26  1  0  0  0  0
 25 30  2  0  0  0  0
 26 27  2  0  0  0  0
 26 22  1  0  0  0  0
 27 28  1  0  0  0  0
 28 29  2  0  0  0  0
 29 30  1  0  0  0  0
 29 35  1  0  0  0  0
 30 31  1  0  0  0  0
 31 32  2  0  0  0  0
 32 33  1  0  0  0  0
 33 34  1  0  0  0  0
 33 35  2  0  0  0  0
 36 37  1  0  0  0  0
 37 38  1  0  0  0  0
M  END
>  <minimizedAffinity>
-10.08778

$$$$
