data/FXA/cocry_dataset/1iqe_XMB_LIG.pdb
 OpenBabel03092321123D

 43 47  0  0  0  0  0  0  0  0999 V2000
    4.8410    6.7188   19.9170 C   0  0  1  0  0  0  0  0  0  0  0  0
    6.2620    7.1310   20.4118 C   0  0  0  0  0  0  0  0  0  0  0  0
    7.0406    7.6315   19.5883 O   0  0  0  0  0  0  0  0  0  0  0  0
    6.6553    6.9688   21.7419 N   0  0  0  0  0  0  0  0  0  0  0  0
    5.8695    6.3885   22.8342 C   0  0  0  0  0  0  0  0  0  0  0  0
    5.4399    7.4518   23.8235 C   0  0  0  0  0  0  0  0  0  0  0  0
    6.8765    8.1922   24.5499 S   0  0  0  0  0  0  0  0  0  0  0  0
    6.4576    9.3871   25.2557 O   0  0  0  0  0  0  0  0  0  0  0  0
    7.6144    7.1512   25.2411 O   0  0  0  0  0  0  0  0  0  0  0  0
    7.8040    8.6864   23.1157 C   0  0  0  0  0  0  0  0  0  0  0  0
    7.9596    7.5124   22.1623 C   0  0  0  0  0  0  0  0  0  0  0  0
    4.3415    7.6873   18.9061 N   0  0  0  0  0  0  0  0  0  0  0  0
    5.0306    8.4095   18.7153 H   0  0  0  0  0  0  0  0  0  0  0  0
    3.8800    7.0798   17.6548 C   0  0  0  0  0  0  0  0  0  0  0  0
    4.0046    8.0762   16.4843 C   0  0  0  0  0  0  0  0  0  0  0  0
    4.1859    7.3863   15.1229 C   0  0  0  0  0  0  0  0  0  0  0  0
    5.5679    6.7529   14.9847 C   0  0  0  0  0  0  0  0  0  0  0  0
    6.5946    7.7668   15.2401 N   0  0  0  0  0  0  0  0  0  0  0  0
    6.5421    8.4574   16.5262 C   0  0  0  0  0  0  0  0  0  0  0  0
    5.1539    9.0776   16.7072 C   0  0  0  0  0  0  0  0  0  0  0  0
    7.6270    7.9893   14.3447 C   0  0  0  0  0  0  0  0  0  0  0  0
    7.6754    9.1468   13.5617 C   0  0  0  0  0  0  0  0  0  0  0  0
    8.7458    9.3588   12.7041 C   0  0  0  0  0  0  0  0  0  0  0  0
    9.7727    8.5003   12.5582 N   0  0  0  0  0  0  0  0  0  0  0  0
    9.7175    7.3820   13.3069 C   0  0  0  0  0  0  0  0  0  0  0  0
    8.6895    7.0927   14.1949 C   0  0  0  0  0  0  0  0  0  0  0  0
    4.7387    5.2340   19.5192 C   0  0  0  0  0  0  0  0  0  0  0  0
    6.0421    4.6165   19.2094 N   0  0  0  0  0  0  0  0  0  0  0  0
    6.7885    5.2855   18.9972 H   0  0  0  0  0  0  0  0  0  0  0  0
    6.5768    3.4403   20.3145 S   0  0  0  0  0  0  0  0  0  0  0  0
    7.7392    3.9605   20.9972 O   0  0  0  0  0  0  0  0  0  0  0  0
    5.4025    2.9873   21.0256 O   0  0  0  0  0  0  0  0  0  0  0  0
    7.0970    2.1344   19.2337 C   0  0  0  0  0  0  0  0  0  0  0  0
    8.4132    1.6647   19.2902 C   0  0  0  0  0  0  0  0  0  0  0  0
    8.8195    0.6174   18.4492 C   0  0  0  0  0  0  0  0  0  0  0  0
    7.8788    0.0339   17.5630 C   0  0  0  0  0  0  0  0  0  0  0  0
    6.5597    0.5126   17.5370 C   0  0  0  0  0  0  0  0  0  0  0  0
    6.1654    1.5584   18.3703 C   0  0  0  0  0  0  0  0  0  0  0  0
    8.2768   -1.0228   16.7321 C   0  0  0  0  0  0  0  0  0  0  0  0
    9.5883   -1.4935   16.7717 C   0  0  0  0  0  0  0  0  0  0  0  0
   10.5214   -0.9196   17.6337 C   0  0  0  0  0  0  0  0  0  0  0  0
   10.1360    0.1297   18.4709 C   0  0  0  0  0  0  0  0  0  0  0  0
   10.0579   -2.7873   15.7408 Cl  0  0  0  0  0  0  0  0  0  0  0  0
  1 12  1  0  0  0  0
  1 27  1  6  0  0  0
  1  2  1  0  0  0  0
  2  3  2  0  0  0  0
  2  4  1  0  0  0  0
  4  5  1  0  0  0  0
  4 11  1  0  0  0  0
  5  6  1  0  0  0  0
  6  7  1  0  0  0  0
  7  8  2  0  0  0  0
  7  9  2  0  0  0  0
  7 10  1  0  0  0  0
 10 11  1  0  0  0  0
 12 14  1  0  0  0  0
 12 13  1  0  0  0  0
 14 15  1  0  0  0  0
 15 16  1  0  0  0  0
 15 20  1  0  0  0  0
 16 17  1  0  0  0  0
 17 18  1  0  0  0  0
 18 21  1  0  0  0  0
 18 19  1  0  0  0  0
 19 20  1  0  0  0  0
 21 22  1  0  0  0  0
 21 26  2  0  0  0  0
 22 23  2  0  0  0  0
 23 24  1  0  0  0  0
 24 25  2  0  0  0  0
 25 26  1  0  0  0  0
 27 28  1  0  0  0  0
 28 30  1  0  0  0  0
 28 29  1  0  0  0  0
 30 31  2  0  0  0  0
 30 32  2  0  0  0  0
 30 33  1  0  0  0  0
 33 34  1  0  0  0  0
 33 38  2  0  0  0  0
 34 35  2  0  0  0  0
 35 36  1  0  0  0  0
 35 42  1  0  0  0  0
 36 37  2  0  0  0  0
 36 39  1  0  0  0  0
 37 38  1  0  0  0  0
 39 40  2  0  0  0  0
 40 41  1  0  0  0  0
 40 43  1  0  0  0  0
 41 42  2  0  0  0  0
M  END
>  <minimizedAffinity>
-12.03447

$$$$
