data/FXA/cocry_dataset/1iqe_XMB_LIG.pdb
 OpenBabel03092321123D

 43 47  0  0  0  0  0  0  0  0999 V2000
    4.6559    7.7375   20.2117 C   0  0  1  0  0  0  0  0  0  0  0  0
    5.3652    7.5690   21.5910 C   0  0  0  0  0  0  0  0  0  0  0  0
    6.6039    7.5516   21.6081 O   0  0  0  0  0  0  0  0  0  0  0  0
    4.6446    7.4610   22.7823 N   0  0  0  0  0  0  0  0  0  0  0  0
    3.1877    7.4521   22.9393 C   0  0  0  0  0  0  0  0  0  0  0  0
    2.6987    8.7356   23.5778 C   0  0  0  0  0  0  0  0  0  0  0  0
    3.3976    8.8880   25.1988 S   0  0  0  0  0  0  0  0  0  0  0  0
    3.1603   10.2400   25.6647 O   0  0  0  0  0  0  0  0  0  0  0  0
    2.9544    7.7515   25.9849 O   0  0  0  0  0  0  0  0  0  0  0  0
    5.1358    8.7066   24.8714 C   0  0  0  0  0  0  0  0  0  0  0  0
    5.3868    7.4481   24.0560 C   0  0  0  0  0  0  0  0  0  0  0  0
    4.9389    9.0811   19.6425 N   0  0  0  0  0  0  0  0  0  0  0  0
    5.9359    9.2779   19.6399 H   0  0  0  0  0  0  0  0  0  0  0  0
    4.3702    9.3122   18.3117 C   0  0  0  0  0  0  0  0  0  0  0  0
    5.2439   10.2954   17.5065 C   0  0  0  0  0  0  0  0  0  0  0  0
    4.9668   10.2488   15.9955 C   0  0  0  0  0  0  0  0  0  0  0  0
    5.4884    8.9626   15.3600 C   0  0  0  0  0  0  0  0  0  0  0  0
    6.9115    8.8083   15.6736 N   0  0  0  0  0  0  0  0  0  0  0  0
    7.2839    8.7962   17.0860 C   0  0  0  0  0  0  0  0  0  0  0  0
    6.7458   10.0622   17.7584 C   0  0  0  0  0  0  0  0  0  0  0  0
    7.8488    8.5836   14.6796 C   0  0  0  0  0  0  0  0  0  0  0  0
    8.5675    7.3860   14.6134 C   0  0  0  0  0  0  0  0  0  0  0  0
    9.4699    7.1757   13.5801 C   0  0  0  0  0  0  0  0  0  0  0  0
    9.7199    8.0725   12.6074 N   0  0  0  0  0  0  0  0  0  0  0  0
    9.0328    9.2287   12.6801 C   0  0  0  0  0  0  0  0  0  0  0  0
    8.1069    9.5198   13.6735 C   0  0  0  0  0  0  0  0  0  0  0  0
    4.8865    6.5512   19.2562 C   0  0  0  0  0  0  0  0  0  0  0  0
    5.9471    5.6301   19.7069 N   0  0  0  0  0  0  0  0  0  0  0  0
    6.7042    6.0793   20.2309 H   0  0  0  0  0  0  0  0  0  0  0  0
    5.4094    4.2256   20.4999 S   0  0  0  0  0  0  0  0  0  0  0  0
    6.0457    4.1697   21.7960 O   0  0  0  0  0  0  0  0  0  0  0  0
    3.9726    4.1955   20.3435 O   0  0  0  0  0  0  0  0  0  0  0  0
    6.0955    2.9466   19.4812 C   0  0  0  0  0  0  0  0  0  0  0  0
    7.4108    2.5192   19.6894 C   0  0  0  0  0  0  0  0  0  0  0  0
    7.9472    1.4928   18.8968 C   0  0  0  0  0  0  0  0  0  0  0  0
    7.1365    0.8871   17.9035 C   0  0  0  0  0  0  0  0  0  0  0  0
    5.8145    1.3231   17.7254 C   0  0  0  0  0  0  0  0  0  0  0  0
    5.2910    2.3484   18.5118 C   0  0  0  0  0  0  0  0  0  0  0  0
    7.6638   -0.1490   17.1200 C   0  0  0  0  0  0  0  0  0  0  0  0
    8.9765   -0.5774   17.3109 C   0  0  0  0  0  0  0  0  0  0  0  0
    9.7828    0.0188   18.2791 C   0  0  0  0  0  0  0  0  0  0  0  0
    9.2675    1.0478   19.0704 C   0  0  0  0  0  0  0  0  0  0  0  0
    9.6061   -1.8464   16.3358 Cl  0  0  0  0  0  0  0  0  0  0  0  0
  1 12  1  0  0  0  0
  1 27  1  6  0  0  0
  1  2  1  0  0  0  0
  2  3  2  0  0  0  0
  2  4  1  0  0  0  0
  4  5  1  0  0  0  0
  4 11  1  0  0  0  0
  5  6  1  0  0  0  0
  6  7  1  0  0  0  0
  7  8  2  0  0  0  0
  7  9  2  0  0  0  0
  7 10  1  0  0  0  0
 10 11  1  0  0  0  0
 12 14  1  0  0  0  0
 12 13  1  0  0  0  0
 14 15  1  0  0  0  0
 15 16  1  0  0  0  0
 15 20  1  0  0  0  0
 16 17  1  0  0  0  0
 17 18  1  0  0  0  0
 18 21  1  0  0  0  0
 18 19  1  0  0  0  0
 19 20  1  0  0  0  0
 21 22  1  0  0  0  0
 21 26  2  0  0  0  0
 22 23  2  0  0  0  0
 23 24  1  0  0  0  0
 24 25  2  0  0  0  0
 25 26  1  0  0  0  0
 27 28  1  0  0  0  0
 28 30  1  0  0  0  0
 28 29  1  0  0  0  0
 30 31  2  0  0  0  0
 30 32  2  0  0  0  0
 30 33  1  0  0  0  0
 33 34  1  0  0  0  0
 33 38  2  0  0  0  0
 34 35  2  0  0  0  0
 35 36  1  0  0  0  0
 35 42  1  0  0  0  0
 36 37  2  0  0  0  0
 36 39  1  0  0  0  0
 37 38  1  0  0  0  0
 39 40  2  0  0  0  0
 40 41  1  0  0  0  0
 40 43  1  0  0  0  0
 41 42  2  0  0  0  0
M  END
>  <minimizedAffinity>
-12.10063

$$$$
