data/FXA/cocry_dataset/1iqf_XMD_LIG.pdb
 OpenBabel03092321123D

 39 43  0  0  0  0  0  0  0  0999 V2000
    2.4142    3.2990   19.2773 N   0  0  0  0  0  0  0  0  0  0  0  0
    2.2943    4.1789   20.4579 C   0  0  0  0  0  0  0  0  0  0  0  0
    3.6945    4.3336   21.0911 C   0  0  1  0  0  0  0  0  0  0  0  0
    4.6376    5.0743   20.1981 N   0  0  0  0  0  0  0  0  0  0  0  0
    4.4886    4.7960   18.7854 C   0  0  0  0  0  0  0  0  0  0  0  0
    5.3557    5.1097   17.9559 O   0  0  0  0  0  0  0  0  0  0  0  0
    3.1776    4.1490   18.2806 C   0  0  0  0  0  0  0  0  0  0  0  0
    3.0378    1.6606   19.4671 S   0  0  0  0  0  0  0  0  0  0  0  0
    2.4859    0.8123   18.4367 O   0  0  0  0  0  0  0  0  0  0  0  0
    2.7639    1.3187   20.8553 O   0  0  0  0  0  0  0  0  0  0  0  0
    5.4951    1.1749   18.0867 C   0  0  0  0  0  0  0  0  0  0  0  0
    4.8606    1.5886   19.2903 C   0  0  0  0  0  0  0  0  0  0  0  0
    5.6381    1.5743   20.4589 C   0  0  0  0  0  0  0  0  0  0  0  0
    6.9774    1.1712   20.4345 C   0  0  0  0  0  0  0  0  0  0  0  0
    7.6161    0.7596   19.2472 C   0  0  0  0  0  0  0  0  0  0  0  0
    6.8828    0.7679   18.0428 C   0  0  0  0  0  0  0  0  0  0  0  0
    7.5627    0.3256   16.8711 C   0  0  0  0  0  0  0  0  0  0  0  0
    8.9035   -0.1172   16.9008 C   0  0  0  0  0  0  0  0  0  0  0  0
    9.5948   -0.1282   18.1081 C   0  0  0  0  0  0  0  0  0  0  0  0
   11.2228   -0.6976   18.1667 Cl  0  0  0  0  0  0  0  0  0  0  0  0
    8.9626    0.3128   19.2687 C   0  0  0  0  0  0  0  0  0  0  0  0
    3.3391    4.1600   22.5618 C   0  0  0  0  0  0  0  0  0  0  0  0
    4.2170    3.7244   23.3139 O   0  0  0  0  0  0  0  0  0  0  0  0
    2.0595    4.2912   22.9456 O   0  0  0  0  0  0  0  0  0  0  0  0
    1.7868    3.5099   24.1365 C   0  0  0  0  0  0  0  0  0  0  0  0
    0.9721    2.2850   23.7494 C   0  0  0  0  0  0  0  0  0  0  0  0
    6.0674    4.9783   20.5904 C   0  0  0  0  0  0  0  0  0  0  0  0
    6.6064    6.0569   21.5195 C   0  0  0  0  0  0  0  0  0  0  0  0
    6.1667    6.2949   22.7667 C   0  0  0  0  0  0  0  0  0  0  0  0
    6.6904    7.4252   23.6221 C   0  0  0  0  0  0  0  0  0  0  0  0
    8.0434    7.8366   23.1853 N   0  0  0  0  0  0  0  0  0  0  0  0
    8.3483    7.7294   21.8392 C   0  0  0  0  0  0  0  0  0  0  0  0
    7.6713    6.9231   20.9993 C   0  0  0  0  0  0  0  0  0  0  0  0
    8.9764    8.2053   24.1840 C   0  0  0  0  0  0  0  0  0  0  0  0
    9.9734    9.1583   23.9303 C   0  0  0  0  0  0  0  0  0  0  0  0
   10.9303    9.4307   24.8989 C   0  0  0  0  0  0  0  0  0  0  0  0
   10.9666    8.8384   26.1078 N   0  0  0  0  0  0  0  0  0  0  0  0
    9.9900    7.9462   26.3586 C   0  0  0  0  0  0  0  0  0  0  0  0
    8.9907    7.6132   25.4533 C   0  0  0  0  0  0  0  0  0  0  0  0
  1  2  1  0  0  0  0
  1  7  1  0  0  0  0
  2  3  1  0  0  0  0
  3  4  1  0  0  0  0
  3 22  1  1  0  0  0
  4  5  1  0  0  0  0
  4 27  1  0  0  0  0
  5  6  2  0  0  0  0
  5  7  1  0  0  0  0
  8  9  2  0  0  0  0
  8 10  2  0  0  0  0
  8  1  1  0  0  0  0
 11 12  1  0  0  0  0
 11 16  2  0  0  0  0
 12 13  2  0  0  0  0
 12  8  1  0  0  0  0
 13 14  1  0  0  0  0
 14 15  2  0  0  0  0
 15 16  1  0  0  0  0
 15 21  1  0  0  0  0
 16 17  1  0  0  0  0
 17 18  2  0  0  0  0
 18 19  1  0  0  0  0
 19 20  1  0  0  0  0
 19 21  2  0  0  0  0
 22 23  2  0  0  0  0
 22 24  1  0  0  0  0
 24 25  1  0  0  0  0
 25 26  1  0  0  0  0
 27 28  1  0  0  0  0
 28 29  2  0  0  0  0
 28 33  1  0  0  0  0
 29 30  1  0  0  0  0
 30 31  1  0  0  0  0
 31 34  1  0  0  0  0
 31 32  1  0  0  0  0
 32 33  2  0  0  0  0
 34 35  1  0  0  0  0
 34 39  2  0  0  0  0
 35 36  2  0  0  0  0
 36 37  1  0  0  0  0
 37 38  2  0  0  0  0
 38 39  1  0  0  0  0
M  END
>  <minimizedAffinity>
-10.64615

$$$$
