data/FXA/cocry_dataset/1iqf_XMD_LIG.pdb
 OpenBabel03092321123D

 39 43  0  0  0  0  0  0  0  0999 V2000
    3.9858    4.0546   19.8139 N   0  0  0  0  0  0  0  0  0  0  0  0
    2.9424    4.1129   20.8581 C   0  0  0  0  0  0  0  0  0  0  0  0
    3.2824    5.2739   21.8183 C   0  0  1  0  0  0  0  0  0  0  0  0
    3.1807    6.6067   21.1486 N   0  0  0  0  0  0  0  0  0  0  0  0
    3.6171    6.6330   19.7687 C   0  0  0  0  0  0  0  0  0  0  0  0
    3.8518    7.6940   19.1707 O   0  0  0  0  0  0  0  0  0  0  0  0
    3.7296    5.3013   18.9901 C   0  0  0  0  0  0  0  0  0  0  0  0
    5.6715    3.8179   20.2738 S   0  0  0  0  0  0  0  0  0  0  0  0
    5.7711    3.7300   21.7119 O   0  0  0  0  0  0  0  0  0  0  0  0
    6.3925    4.8889   19.6015 O   0  0  0  0  0  0  0  0  0  0  0  0
    7.7509    1.9611   19.6349 C   0  0  0  0  0  0  0  0  0  0  0  0
    6.3607    2.2589   19.6005 C   0  0  0  0  0  0  0  0  0  0  0  0
    5.5719    1.5198   18.7050 C   0  0  0  0  0  0  0  0  0  0  0  0
    6.1336    0.5344   17.8861 C   0  0  0  0  0  0  0  0  0  0  0  0
    7.5099    0.2311   17.9125 C   0  0  0  0  0  0  0  0  0  0  0  0
    8.3444    0.9360   18.8041 C   0  0  0  0  0  0  0  0  0  0  0  0
    9.7315    0.6102   18.7829 C   0  0  0  0  0  0  0  0  0  0  0  0
   10.2634   -0.3605   17.9057 C   0  0  0  0  0  0  0  0  0  0  0  0
    9.4158   -1.0275   17.0268 C   0  0  0  0  0  0  0  0  0  0  0  0
   10.0554   -2.1924   15.9259 Cl  0  0  0  0  0  0  0  0  0  0  0  0
    8.0521   -0.7424   17.0340 C   0  0  0  0  0  0  0  0  0  0  0  0
    3.0247    4.5932   23.1561 C   0  0  0  0  0  0  0  0  0  0  0  0
    3.9938    4.0989   23.7415 O   0  0  0  0  0  0  0  0  0  0  0  0
    1.7588    4.3810   23.5492 O   0  0  0  0  0  0  0  0  0  0  0  0
    1.0781    5.6320   23.8222 C   0  0  0  0  0  0  0  0  0  0  0  0
    1.3460    6.0372   25.2638 C   0  0  0  0  0  0  0  0  0  0  0  0
    3.7990    7.7281   21.9021 C   0  0  0  0  0  0  0  0  0  0  0  0
    5.1438    7.4619   22.5636 C   0  0  0  0  0  0  0  0  0  0  0  0
    6.3085    7.3018   21.9130 C   0  0  0  0  0  0  0  0  0  0  0  0
    7.6047    6.9701   22.6155 C   0  0  0  0  0  0  0  0  0  0  0  0
    7.5605    7.3903   24.0339 N   0  0  0  0  0  0  0  0  0  0  0  0
    6.3387    7.3461   24.6833 C   0  0  0  0  0  0  0  0  0  0  0  0
    5.1627    7.3428   24.0267 C   0  0  0  0  0  0  0  0  0  0  0  0
    8.7441    7.9177   24.6040 C   0  0  0  0  0  0  0  0  0  0  0  0
    9.5147    8.8722   23.9246 C   0  0  0  0  0  0  0  0  0  0  0  0
   10.7182    9.3014   24.4681 C   0  0  0  0  0  0  0  0  0  0  0  0
   11.2108    8.8652   25.6431 N   0  0  0  0  0  0  0  0  0  0  0  0
   10.4533    7.9715   26.3066 C   0  0  0  0  0  0  0  0  0  0  0  0
    9.2365    7.4884   25.8429 C   0  0  0  0  0  0  0  0  0  0  0  0
  1  2  1  0  0  0  0
  1  7  1  0  0  0  0
  2  3  1  0  0  0  0
  3  4  1  0  0  0  0
  3 22  1  1  0  0  0
  4  5  1  0  0  0  0
  4 27  1  0  0  0  0
  5  6  2  0  0  0  0
  5  7  1  0  0  0  0
  8  9  2  0  0  0  0
  8 10  2  0  0  0  0
  8  1  1  0  0  0  0
 11 12  1  0  0  0  0
 11 16  2  0  0  0  0
 12 13  2  0  0  0  0
 12  8  1  0  0  0  0
 13 14  1  0  0  0  0
 14 15  2  0  0  0  0
 15 16  1  0  0  0  0
 15 21  1  0  0  0  0
 16 17  1  0  0  0  0
 17 18  2  0  0  0  0
 18 19  1  0  0  0  0
 19 20  1  0  0  0  0
 19 21  2  0  0  0  0
 22 23  2  0  0  0  0
 22 24  1  0  0  0  0
 24 25  1  0  0  0  0
 25 26  1  0  0  0  0
 27 28  1  0  0  0  0
 28 29  2  0  0  0  0
 28 33  1  0  0  0  0
 29 30  1  0  0  0  0
 30 31  1  0  0  0  0
 31 34  1  0  0  0  0
 31 32  1  0  0  0  0
 32 33  2  0  0  0  0
 34 35  1  0  0  0  0
 34 39  2  0  0  0  0
 35 36  2  0  0  0  0
 36 37  1  0  0  0  0
 37 38  2  0  0  0  0
 38 39  1  0  0  0  0
M  END
>  <minimizedAffinity>
-11.28208

$$$$
