data/FXA/cocry_dataset/1iqf_XMD_LIG.pdb
 OpenBabel03092321123D

 39 43  0  0  0  0  0  0  0  0999 V2000
    1.8676    2.2634   19.4136 N   0  0  0  0  0  0  0  0  0  0  0  0
    2.3624    3.6517   19.5143 C   0  0  0  0  0  0  0  0  0  0  0  0
    3.7281    3.7324   18.7974 C   0  0  1  0  0  0  0  0  0  0  0  0
    3.6044    3.5120   17.3238 N   0  0  0  0  0  0  0  0  0  0  0  0
    2.6183    2.5270   16.9331 C   0  0  0  0  0  0  0  0  0  0  0  0
    2.5888    2.0386   15.7933 O   0  0  0  0  0  0  0  0  0  0  0  0
    1.5219    2.1183   17.9445 C   0  0  0  0  0  0  0  0  0  0  0  0
    2.8321    0.9411   20.0699 S   0  0  0  0  0  0  0  0  0  0  0  0
    2.4021   -0.3066   19.4832 O   0  0  0  0  0  0  0  0  0  0  0  0
    2.7300    1.0899   21.5143 O   0  0  0  0  0  0  0  0  0  0  0  0
    5.1841    0.6293   18.4729 C   0  0  0  0  0  0  0  0  0  0  0  0
    4.6132    1.1226   19.6784 C   0  0  0  0  0  0  0  0  0  0  0  0
    5.4957    1.4090   20.7318 C   0  0  0  0  0  0  0  0  0  0  0  0
    6.8747    1.2170   20.5956 C   0  0  0  0  0  0  0  0  0  0  0  0
    7.4509    0.7289   19.4053 C   0  0  0  0  0  0  0  0  0  0  0  0
    6.6092    0.4378   18.3122 C   0  0  0  0  0  0  0  0  0  0  0  0
    7.2326   -0.0715   17.1363 C   0  0  0  0  0  0  0  0  0  0  0  0
    8.6252   -0.2937   17.0587 C   0  0  0  0  0  0  0  0  0  0  0  0
    9.4265   -0.0112   18.1603 C   0  0  0  0  0  0  0  0  0  0  0  0
   11.1251   -0.3085   18.0924 Cl  0  0  0  0  0  0  0  0  0  0  0  0
    8.8490    0.5024   19.3195 C   0  0  0  0  0  0  0  0  0  0  0  0
    4.5118    4.5506   19.8152 C   0  0  0  0  0  0  0  0  0  0  0  0
    3.9200    4.9061   20.8397 O   0  0  0  0  0  0  0  0  0  0  0  0
    5.7259    5.0176   19.4840 O   0  0  0  0  0  0  0  0  0  0  0  0
    6.4384    5.4997   20.6514 C   0  0  0  0  0  0  0  0  0  0  0  0
    7.6099    4.5716   20.9348 C   0  0  0  0  0  0  0  0  0  0  0  0
    4.8901    3.2536   16.6255 C   0  0  0  0  0  0  0  0  0  0  0  0
    5.3202    4.2603   15.5677 C   0  0  0  0  0  0  0  0  0  0  0  0
    5.0760    5.5809   15.6110 C   0  0  0  0  0  0  0  0  0  0  0  0
    5.4655    6.5266   14.4986 C   0  0  0  0  0  0  0  0  0  0  0  0
    6.5767    5.9696   13.6952 N   0  0  0  0  0  0  0  0  0  0  0  0
    6.6431    4.5945   13.5498 C   0  0  0  0  0  0  0  0  0  0  0  0
    6.0333    3.7408   14.3944 C   0  0  0  0  0  0  0  0  0  0  0  0
    7.5642    6.8668   13.2218 C   0  0  0  0  0  0  0  0  0  0  0  0
    8.8966    6.7715   13.6486 C   0  0  0  0  0  0  0  0  0  0  0  0
    9.8222    7.7221   13.2389 C   0  0  0  0  0  0  0  0  0  0  0  0
    9.5297    8.7550   12.4259 N   0  0  0  0  0  0  0  0  0  0  0  0
    8.2563    8.8256   11.9942 C   0  0  0  0  0  0  0  0  0  0  0  0
    7.2648    7.9197   12.3481 C   0  0  0  0  0  0  0  0  0  0  0  0
  1  2  1  0  0  0  0
  1  7  1  0  0  0  0
  2  3  1  0  0  0  0
  3  4  1  0  0  0  0
  3 22  1  6  0  0  0
  4  5  1  0  0  0  0
  4 27  1  0  0  0  0
  5  6  2  0  0  0  0
  5  7  1  0  0  0  0
  8  9  2  0  0  0  0
  8 10  2  0  0  0  0
  8  1  1  0  0  0  0
 11 12  1  0  0  0  0
 11 16  2  0  0  0  0
 12 13  2  0  0  0  0
 12  8  1  0  0  0  0
 13 14  1  0  0  0  0
 14 15  2  0  0  0  0
 15 16  1  0  0  0  0
 15 21  1  0  0  0  0
 16 17  1  0  0  0  0
 17 18  2  0  0  0  0
 18 19  1  0  0  0  0
 19 20  1  0  0  0  0
 19 21  2  0  0  0  0
 22 23  2  0  0  0  0
 22 24  1  0  0  0  0
 24 25  1  0  0  0  0
 25 26  1  0  0  0  0
 27 28  1  0  0  0  0
 28 29  2  0  0  0  0
 28 33  1  0  0  0  0
 29 30  1  0  0  0  0
 30 31  1  0  0  0  0
 31 34  1  0  0  0  0
 31 32  1  0  0  0  0
 32 33  2  0  0  0  0
 34 35  1  0  0  0  0
 34 39  2  0  0  0  0
 35 36  2  0  0  0  0
 36 37  1  0  0  0  0
 37 38  2  0  0  0  0
 38 39  1  0  0  0  0
M  END
>  <minimizedAffinity>
-10.62039

$$$$
