data/HSP90/cocry_dataset/1byq_ADP_LIG.pdb
 OpenBabel03092321123D

 34 36  0  0  0  0  0  0  0  0999 V2000
    6.0442    8.8899   22.8442 C   0  0  1  0  0  0  0  0  0  0  0  0
    5.6941   10.2526   22.5130 O   0  0  0  0  0  0  0  0  0  0  0  0
    6.7290   11.1514   23.0051 C   0  0  2  0  0  0  0  0  0  0  0  0
    7.6296   10.3035   23.9106 C   0  0  1  0  0  0  0  0  0  0  0  0
    7.5126    8.9302   23.2546 C   0  0  2  0  0  0  0  0  0  0  0  0
    8.4053    8.8823   22.1315 O   0  0  0  0  0  0  0  0  0  0  0  0
    8.9876   10.7200   23.9613 O   0  0  0  0  0  0  0  0  0  0  0  0
    7.9107    9.0662   21.3146 H   0  0  0  0  0  0  0  0  0  0  0  0
    9.4604   10.2155   23.2668 H   0  0  0  0  0  0  0  0  0  0  0  0
    6.0845   12.2750   23.6635 N   0  0  0  0  0  0  0  0  0  0  0  0
    4.7379   12.4293   23.8617 C   0  0  0  0  0  0  0  0  0  0  0  0
    4.4486   13.5246   24.5314 N   0  0  0  0  0  0  0  0  0  0  0  0
    5.6735   14.1433   24.7133 C   0  0  0  0  0  0  0  0  0  0  0  0
    6.0510   15.3486   25.3368 C   0  0  0  0  0  0  0  0  0  0  0  0
    5.1486   16.1934   25.9706 N   0  0  0  0  0  0  0  0  0  0  0  0
    7.3479   15.7225   25.2942 N   0  0  0  0  0  0  0  0  0  0  0  0
    8.2343   14.9011   24.6879 C   0  0  0  0  0  0  0  0  0  0  0  0
    8.0031   13.7148   24.0883 N   0  0  0  0  0  0  0  0  0  0  0  0
    6.6957   13.3997   24.1419 C   0  0  0  0  0  0  0  0  0  0  0  0
    4.1892   16.0734   25.6722 H   0  0  0  0  0  0  0  0  0  0  0  0
    5.5047   17.1361   26.0608 H   0  0  0  0  0  0  0  0  0  0  0  0
    5.2223    8.3527   24.0221 C   0  0  0  0  0  0  0  0  0  0  0  0
    4.3440    9.3113   24.5871 O   0  0  0  0  0  0  0  0  0  0  0  0
    2.7810    9.1154   24.2393 P   0  0  1  0  0  0  0  0  0  0  0  0
    2.1190   10.3188   23.6630 O   0  0  0  0  0  0  0  0  0  0  0  0
    2.7986    7.8814   23.2163 O   0  0  0  0  0  0  0  0  0  0  0  0
    2.6583    8.1859   22.3003 H   0  0  0  0  0  0  0  0  0  0  0  0
    2.1015    8.5215   25.5626 O   0  0  0  0  0  0  0  0  0  0  0  0
    0.7124    7.5496   25.2183 P   0  0  0  0  0  0  0  0  0  0  0  0
    0.0223    8.0822   26.4720 O   0  0  0  0  0  0  0  0  0  0  0  0
    0.2124    8.5975   24.0761 O   0  0  0  0  0  0  0  0  0  0  0  0
   -0.6767    6.5776   24.8739 O   0  0  0  0  0  0  0  0  0  0  0  0
   -0.4670    9.1546   24.5129 H   0  0  0  0  0  0  0  0  0  0  0  0
   -0.7281    6.3910   23.9134 H   0  0  0  0  0  0  0  0  0  0  0  0
  1 22  1  1  0  0  0
  1  2  1  0  0  0  0
  1  5  1  0  0  0  0
  2  3  1  0  0  0  0
  3  4  1  0  0  0  0
  3 10  1  1  0  0  0
  4  5  1  0  0  0  0
  4  7  1  6  0  0  0
  5  6  1  6  0  0  0
  6  8  1  0  0  0  0
  7  9  1  0  0  0  0
 10 11  1  0  0  0  0
 10 19  1  0  0  0  0
 11 12  2  0  0  0  0
 12 13  1  0  0  0  0
 13 14  1  0  0  0  0
 13 19  2  0  0  0  0
 14 15  1  0  0  0  0
 14 16  2  0  0  0  0
 15 20  1  0  0  0  0
 15 21  1  0  0  0  0
 16 17  1  0  0  0  0
 17 18  2  0  0  0  0
 18 19  1  0  0  0  0
 23 22  1  0  0  0  0
 24 26  1  0  0  0  0
 24 23  1  0  0  0  0
 24 25  2  6  0  0  0
 24 28  1  0  0  0  0
 26 27  1  0  0  0  0
 29 30  2  0  0  0  0
 29 31  1  0  0  0  0
 29 32  1  0  0  0  0
 29 28  1  0  0  0  0
 31 33  1  0  0  0  0
 32 34  1  0  0  0  0
M  END
>  <minimizedAffinity>
-8.38277

$$$$
