data/HSP90/cocry_dataset/1byq_ADP_LIG.pdb


 34 36  0  0  0  0  0  0  0  0999 V2000
    6.0442    8.8899   22.8442 C   0  0  0  0  0  0  0  0  0  0  0  0
    5.6941   10.2526   22.5130 O   0  0  0  0  0  0  0  0  0  0  0  0
    6.7290   11.1514   23.0051 C   0  0  0  0  0  0  0  0  0  0  0  0
    7.6296   10.3035   23.9106 C   0  0  0  0  0  0  0  0  0  0  0  0
    7.5126    8.9302   23.2546 C   0  0  0  0  0  0  0  0  0  0  0  0
    8.4053    8.8823   22.1315 O   0  0  0  0  0  0  0  0  0  0  0  0
    8.9876   10.7200   23.9613 O   0  0  0  0  0  0  0  0  0  0  0  0
    7.9107    9.0662   21.3146 H   0  0  0  0  0  0  0  0  0  0  0  0
    9.4604   10.2155   23.2668 H   0  0  0  0  0  0  0  0  0  0  0  0
    6.0845   12.2750   23.6635 N   0  0  0  0  0  0  0  0  0  0  0  0
    4.7379   12.4293   23.8617 C   0  0  0  0  0  0  0  0  0  0  0  0
    4.4486   13.5246   24.5314 N   0  0  0  0  0  0  0  0  0  0  0  0
    5.6735   14.1433   24.7133 C   0  0  0  0  0  0  0  0  0  0  0  0
    6.0510   15.3486   25.3368 C   0  0  0  0  0  0  0  0  0  0  0  0
    5.1486   16.1934   25.9706 N   0  0  0  0  0  0  0  0  0  0  0  0
    7.3479   15.7225   25.2942 N   0  0  0  0  0  0  0  0  0  0  0  0
    8.2343   14.9011   24.6879 C   0  0  0  0  0  0  0  0  0  0  0  0
    8.0031   13.7148   24.0883 N   0  0  0  0  0  0  0  0  0  0  0  0
    6.6957   13.3997   24.1419 C   0  0  0  0  0  0  0  0  0  0  0  0
    4.1892   16.0734   25.6722 H   0  0  0  0  0  0  0  0  0  0  0  0
    5.5047   17.1361   26.0608 H   0  0  0  0  0  0  0  0  0  0  0  0
    5.2223    8.3527   24.0221 C   0  0  0  0  0  0  0  0  0  0  0  0
    4.3440    9.3113   24.5871 O   0  0  0  0  0  0  0  0  0  0  0  0
    2.7810    9.1154   24.2393 P   0  0  0  0  0  0  0  0  0  0  0  0
    2.1190   10.3188   23.6630 O   0  0  0  0  0  0  0  0  0  0  0  0
    2.7986    7.8814   23.2163 O   0  0  0  0  0  0  0  0  0  0  0  0
    2.6583    8.1859   22.3003 H   0  0  0  0  0  0  0  0  0  0  0  0
    2.1015    8.5215   25.5626 O   0  0  0  0  0  0  0  0  0  0  0  0
    0.7124    7.5496   25.2183 P   0  0  0  0  0  0  0  0  0  0  0  0
    0.0223    8.0822   26.4720 O   0  0  0  0  0  0  0  0  0  0  0  0
    0.2124    8.5975   24.0761 O   0  0  0  0  0  0  0  0  0  0  0  0
   -0.6767    6.5776   24.8739 O   0  0  0  0  0  0  0  0  0  0  0  0
   -0.4670    9.1546   24.5129 H   0  0  0  0  0  0  0  0  0  0  0  0
   -0.7281    6.3910   23.9134 H   0  0  0  0  0  0  0  0  0  0  0  0
 29 30  2  0  0  0
 29 31  1  0  0  0
 29 32  1  0  0  0
 29 28  1  0  0  0
 31 33  1  0  0  0
 32 34  1  0  0  0
 24 26  1  0  0  0
 24 23  1  0  0  0
 24 25  2  0  0  0
 24 28  1  0  0  0
 26 27  1  0  0  0
 23 22  1  0  0  0
 22  1  1  0  0  0
  1  2  1  0  0  0
  1  5  1  0  0  0
  2  3  1  0  0  0
  3  4  1  0  0  0
  3 10  1  0  0  0
  4  5  1  0  0  0
  4  7  1  0  0  0
  5  6  1  0  0  0
  6  8  1  0  0  0
  7  9  1  0  0  0
 10 11  1  0  0  0
 10 19  1  0  0  0
 11 12  2  0  0  0
 12 13  1  0  0  0
 13 14  1  0  0  0
 13 19  2  0  0  0
 14 15  1  0  0  0
 14 16  2  0  0  0
 15 20  1  0  0  0
 15 21  1  0  0  0
 16 17  1  0  0  0
 17 18  2  0  0  0
 18 19  1  0  0  0
M  END
> <minimizedAffinity>
-8.38277

$$$$
data/HSP90/cocry_dataset/1byq_ADP_LIG.pdb


 34 36  0  0  0  0  0  0  0  0999 V2000
    3.9289    8.8756   23.2663 C   0  0  0  0  0  0  0  0  0  0  0  0
    4.5163   10.1188   22.8206 O   0  0  0  0  0  0  0  0  0  0  0  0
    5.9605    9.9618   22.7168 C   0  0  0  0  0  0  0  0  0  0  0  0
    6.2891    8.6218   23.3847 C   0  0  0  0  0  0  0  0  0  0  0  0
    5.0198    7.8225   23.1019 C   0  0  0  0  0  0  0  0  0  0  0  0
    5.0945    7.3034   21.7656 O   0  0  0  0  0  0  0  0  0  0  0  0
    7.4284    7.9550   22.8577 O   0  0  0  0  0  0  0  0  0  0  0  0
    4.5957    7.8817   21.1635 H   0  0  0  0  0  0  0  0  0  0  0  0
    7.1009    7.3565   22.1544 H   0  0  0  0  0  0  0  0  0  0  0  0
    6.5919   11.1198   23.3265 N   0  0  0  0  0  0  0  0  0  0  0  0
    7.9334   11.2822   23.5506 C   0  0  0  0  0  0  0  0  0  0  0  0
    8.2194   12.4554   24.0738 N   0  0  0  0  0  0  0  0  0  0  0  0
    6.9845   13.0528   24.2597 C   0  0  0  0  0  0  0  0  0  0  0  0
    6.5971   14.2992   24.7893 C   0  0  0  0  0  0  0  0  0  0  0  0
    7.5040   15.2529   25.2339 N   0  0  0  0  0  0  0  0  0  0  0  0
    5.2799   14.5753   24.9010 N   0  0  0  0  0  0  0  0  0  0  0  0
    4.3908   13.6565   24.4614 C   0  0  0  0  0  0  0  0  0  0  0  0
    4.6360   12.4502   23.9092 N   0  0  0  0  0  0  0  0  0  0  0  0
    5.9599   12.2175   23.8393 C   0  0  0  0  0  0  0  0  0  0  0  0
    8.4149   14.8803   25.4690 H   0  0  0  0  0  0  0  0  0  0  0  0
    7.0816   15.9153   25.8713 H   0  0  0  0  0  0  0  0  0  0  0  0
    3.5188    8.9278   24.7431 C   0  0  0  0  0  0  0  0  0  0  0  0
    2.9463   10.1651   25.1313 O   0  0  0  0  0  0  0  0  0  0  0  0
    1.3444   10.2720   24.9744 P   0  0  0  0  0  0  0  0  0  0  0  0
    0.7591    9.3558   23.9563 O   0  0  0  0  0  0  0  0  0  0  0  0
    0.8221    9.9500   26.4553 O   0  0  0  0  0  0  0  0  0  0  0  0
    0.4581    9.0465   26.5079 H   0  0  0  0  0  0  0  0  0  0  0  0
    1.0198   11.8273   24.7707 O   0  0  0  0  0  0  0  0  0  0  0  0
    0.8505   12.2586   23.1039 P   0  0  0  0  0  0  0  0  0  0  0  0
    1.2472   13.6966   23.4303 O   0  0  0  0  0  0  0  0  0  0  0  0
    2.2846   11.5777   22.7403 O   0  0  0  0  0  0  0  0  0  0  0  0
    0.6811   12.6899   21.4371 O   0  0  0  0  0  0  0  0  0  0  0  0
    2.9266   12.3193   22.7160 H   0  0  0  0  0  0  0  0  0  0  0  0
    0.8094   11.9014   20.8699 H   0  0  0  0  0  0  0  0  0  0  0  0
 29 30  2  0  0  0
 29 31  1  0  0  0
 29 32  1  0  0  0
 29 28  1  0  0  0
 31 33  1  0  0  0
 32 34  1  0  0  0
 24 26  1  0  0  0
 24 23  1  0  0  0
 24 25  2  0  0  0
 24 28  1  0  0  0
 26 27  1  0  0  0
 23 22  1  0  0  0
 22  1  1  0  0  0
  1  2  1  0  0  0
  1  5  1  0  0  0
  2  3  1  0  0  0
  3  4  1  0  0  0
  3 10  1  0  0  0
  4  5  1  0  0  0
  4  7  1  0  0  0
  5  6  1  0  0  0
  6  8  1  0  0  0
  7  9  1  0  0  0
 10 11  1  0  0  0
 10 19  1  0  0  0
 11 12  2  0  0  0
 12 13  1  0  0  0
 13 14  1  0  0  0
 13 19  2  0  0  0
 14 15  1  0  0  0
 14 16  2  0  0  0
 15 20  1  0  0  0
 15 21  1  0  0  0
 16 17  1  0  0  0
 17 18  2  0  0  0
 18 19  1  0  0  0
M  END
> <minimizedAffinity>
-7.98221

$$$$
data/HSP90/cocry_dataset/1byq_ADP_LIG.pdb


 34 36  0  0  0  0  0  0  0  0999 V2000
    5.9513    8.8792   22.9064 C   0  0  0  0  0  0  0  0  0  0  0  0
    5.5903   10.2369   22.5665 O   0  0  0  0  0  0  0  0  0  0  0  0
    6.6319   11.1445   23.0273 C   0  0  0  0  0  0  0  0  0  0  0  0
    7.5531   10.3100   23.9244 C   0  0  0  0  0  0  0  0  0  0  0  0
    7.4275    8.9287   23.2869 C   0  0  0  0  0  0  0  0  0  0  0  0
    8.2977    8.8703   22.1468 O   0  0  0  0  0  0  0  0  0  0  0  0
    8.9106   10.7310   23.9431 O   0  0  0  0  0  0  0  0  0  0  0  0
    7.7863    9.0431   21.3379 H   0  0  0  0  0  0  0  0  0  0  0  0
    9.3710   10.2198   23.2452 H   0  0  0  0  0  0  0  0  0  0  0  0
    5.9970   12.2738   23.6853 N   0  0  0  0  0  0  0  0  0  0  0  0
    4.6546   12.4247   23.9118 C   0  0  0  0  0  0  0  0  0  0  0  0
    4.3752   13.5275   24.5734 N   0  0  0  0  0  0  0  0  0  0  0  0
    5.6010   14.1540   24.7195 C   0  0  0  0  0  0  0  0  0  0  0  0
    5.9867   15.3691   25.3185 C   0  0  0  0  0  0  0  0  0  0  0  0
    5.0948   16.2182   25.9614 N   0  0  0  0  0  0  0  0  0  0  0  0
    7.2805   15.7481   25.2416 N   0  0  0  0  0  0  0  0  0  0  0  0
    8.1570   14.9228   24.6262 C   0  0  0  0  0  0  0  0  0  0  0  0
    7.9179   13.7277   24.0477 N   0  0  0  0  0  0  0  0  0  0  0  0
    6.6135   13.4074   24.1350 C   0  0  0  0  0  0  0  0  0  0  0  0
    4.1295   16.0899   25.6863 H   0  0  0  0  0  0  0  0  0  0  0  0
    5.4484   17.1635   26.0311 H   0  0  0  0  0  0  0  0  0  0  0  0
    5.1547    8.3535   24.1067 C   0  0  0  0  0  0  0  0  0  0  0  0
    4.2137    9.2831   24.6163 O   0  0  0  0  0  0  0  0  0  0  0  0
    2.6633    8.9126   24.3689 P   0  0  0  0  0  0  0  0  0  0  0  0
    2.4351    7.8518   23.3484 O   0  0  0  0  0  0  0  0  0  0  0  0
    2.1684    8.4704   25.8280 O   0  0  0  0  0  0  0  0  0  0  0  0
    2.0822    7.5006   25.8880 H   0  0  0  0  0  0  0  0  0  0  0  0
    1.9111   10.3010   24.1007 O   0  0  0  0  0  0  0  0  0  0  0  0
    0.3661   10.3809   24.8751 P   0  0  0  0  0  0  0  0  0  0  0  0
   -0.1561   11.2749   23.7527 O   0  0  0  0  0  0  0  0  0  0  0  0
   -0.0232    8.8921   24.3417 O   0  0  0  0  0  0  0  0  0  0  0  0
   -1.1788   10.4608   25.6495 O   0  0  0  0  0  0  0  0  0  0  0  0
   -0.5778    9.0373   23.5454 H   0  0  0  0  0  0  0  0  0  0  0  0
   -1.3145    9.6713   26.2137 H   0  0  0  0  0  0  0  0  0  0  0  0
 29 30  2  0  0  0
 29 31  1  0  0  0
 29 32  1  0  0  0
 29 28  1  0  0  0
 31 33  1  0  0  0
 32 34  1  0  0  0
 24 26  1  0  0  0
 24 23  1  0  0  0
 24 25  2  0  0  0
 24 28  1  0  0  0
 26 27  1  0  0  0
 23 22  1  0  0  0
 22  1  1  0  0  0
  1  2  1  0  0  0
  1  5  1  0  0  0
  2  3  1  0  0  0
  3  4  1  0  0  0
  3 10  1  0  0  0
  4  5  1  0  0  0
  4  7  1  0  0  0
  5  6  1  0  0  0
  6  8  1  0  0  0
  7  9  1  0  0  0
 10 11  1  0  0  0
 10 19  1  0  0  0
 11 12  2  0  0  0
 12 13  1  0  0  0
 13 14  1  0  0  0
 13 19  2  0  0  0
 14 15  1  0  0  0
 14 16  2  0  0  0
 15 20  1  0  0  0
 15 21  1  0  0  0
 16 17  1  0  0  0
 17 18  2  0  0  0
 18 19  1  0  0  0
M  END
> <minimizedAffinity>
-7.93478

$$$$
