data/HSP90/cocry_dataset/1uy6_PU3_LIG.pdb
 OpenBabel03092321123D

 29 31  0  0  0  0  0  0  0  0999 V2000
    4.9418   12.0428   23.7069 C   0  0  0  0  0  0  0  0  0  0  0  0
    4.4693   13.1026   24.3458 N   0  0  0  0  0  0  0  0  0  0  0  0
    5.5588   13.8987   24.6154 C   0  0  0  0  0  0  0  0  0  0  0  0
    5.7027   15.1171   25.2989 C   0  0  0  0  0  0  0  0  0  0  0  0
    4.6373   15.8030   25.8734 N   0  0  0  0  0  0  0  0  0  0  0  0
    6.9344   15.6626   25.4061 N   0  0  0  0  0  0  0  0  0  0  0  0
    7.9737   15.0023   24.8598 C   0  0  0  0  0  0  0  0  0  0  0  0
    7.9529   13.8466   24.1720 N   0  0  0  0  0  0  0  0  0  0  0  0
    6.7151   13.3359   24.0971 C   0  0  0  0  0  0  0  0  0  0  0  0
    6.3173   12.1479   23.5277 N   0  0  0  0  0  0  0  0  0  0  0  0
    3.7427   15.5667   25.4613 H   0  0  0  0  0  0  0  0  0  0  0  0
    4.8511   16.7821   26.0031 H   0  0  0  0  0  0  0  0  0  0  0  0
    4.0939   10.8769   23.2853 C   0  0  0  0  0  0  0  0  0  0  0  0
    1.4794    9.5393   25.7368 C   0  0  0  0  0  0  0  0  0  0  0  0
    2.6895    9.7433   25.0590 C   0  0  0  0  0  0  0  0  0  0  0  0
    2.8227   10.7480   24.0939 C   0  0  0  0  0  0  0  0  0  0  0  0
    1.7383   11.5989   23.8459 C   0  0  0  0  0  0  0  0  0  0  0  0
    0.5331   11.4460   24.5401 C   0  0  0  0  0  0  0  0  0  0  0  0
    0.4007   10.4161   25.4999 C   0  0  0  0  0  0  0  0  0  0  0  0
    2.2955    8.2539   27.5829 C   0  0  0  0  0  0  0  0  0  0  0  0
    1.2906    8.4949   26.6059 O   0  0  0  0  0  0  0  0  0  0  0  0
   -0.8461   10.3188   26.0774 O   0  0  0  0  0  0  0  0  0  0  0  0
   -0.9418   10.5859   27.4698 C   0  0  0  0  0  0  0  0  0  0  0  0
   -0.5711   12.2431   24.3444 O   0  0  0  0  0  0  0  0  0  0  0  0
   -1.2384   12.1511   23.0925 C   0  0  0  0  0  0  0  0  0  0  0  0
    7.1880   11.2024   22.8465 C   0  0  0  0  0  0  0  0  0  0  0  0
    7.9458   10.2300   23.7564 C   0  0  0  0  0  0  0  0  0  0  0  0
    7.2346    8.8858   23.8970 C   0  0  0  0  0  0  0  0  0  0  0  0
    8.2451    7.7471   23.9178 C   0  0  0  0  0  0  0  0  0  0  0  0
  1  2  2  0  0  0  0
  1 10  1  0  0  0  0
  2  3  1  0  0  0  0
  3  4  1  0  0  0  0
  3  9  2  0  0  0  0
  4  5  1  0  0  0  0
  4  6  2  0  0  0  0
  5 11  1  0  0  0  0
  5 12  1  0  0  0  0
  6  7  1  0  0  0  0
  7  8  2  0  0  0  0
  8  9  1  0  0  0  0
  9 10  1  0  0  0  0
 10 26  1  0  0  0  0
 13  1  1  0  0  0  0
 14 15  1  0  0  0  0
 14 19  2  0  0  0  0
 15 16  2  0  0  0  0
 16 17  1  0  0  0  0
 16 13  1  0  0  0  0
 17 18  2  0  0  0  0
 18 19  1  0  0  0  0
 18 24  1  0  0  0  0
 19 22  1  0  0  0  0
 20 21  1  0  0  0  0
 21 14  1  0  0  0  0
 22 23  1  0  0  0  0
 24 25  1  0  0  0  0
 26 27  1  0  0  0  0
 27 28  1  0  0  0  0
 28 29  1  0  0  0  0
M  END
>  <minimizedAffinity>
-9.07220

$$$$
