data/HSP90/cocry_dataset/1uy7_PU4_LIG.pdb


 25 27  0  0  0  0  0  0  0  0999 V2000
    6.3021   12.2251   23.6060 N   0  0  0  0  0  0  0  0  0  0  0  0
    6.8156   13.3956   24.1143 C   0  0  0  0  0  0  0  0  0  0  0  0
    8.0862   13.8329   24.0629 N   0  0  0  0  0  0  0  0  0  0  0  0
    8.2095   15.0416   24.6441 C   0  0  0  0  0  0  0  0  0  0  0  0
    7.2458   15.8031   25.2044 N   0  0  0  0  0  0  0  0  0  0  0  0
    5.9848   15.3175   25.2340 C   0  0  0  0  0  0  0  0  0  0  0  0
    5.7337   14.0516   24.6794 C   0  0  0  0  0  0  0  0  0  0  0  0
    4.5912   13.2993   24.5442 N   0  0  0  0  0  0  0  0  0  0  0  0
    4.9510   12.1821   23.9289 C   0  0  0  0  0  0  0  0  0  0  0  0
    4.9921   16.1255   25.7781 N   0  0  0  0  0  0  0  0  0  0  0  0
    5.2651   17.0981   25.7591 H   0  0  0  0  0  0  0  0  0  0  0  0
    4.0675   15.8956   25.4281 H   0  0  0  0  0  0  0  0  0  0  0  0
    7.1126   11.2717   22.8674 C   0  0  0  0  0  0  0  0  0  0  0  0
    7.8406   10.2637   23.7546 C   0  0  0  0  0  0  0  0  0  0  0  0
    8.1545    7.8000   24.1012 C   0  0  0  0  0  0  0  0  0  0  0  0
    7.1646    8.8946   23.7328 C   0  0  0  0  0  0  0  0  0  0  0  0
    3.9745   11.0788   23.5912 C   0  0  0  0  0  0  0  0  0  0  0  0
    2.5183   11.4768   23.6900 C   0  0  0  0  0  0  0  0  0  0  0  0
    1.7153   11.0119   24.7400 C   0  0  0  0  0  0  0  0  0  0  0  0
    0.3461   11.2999   24.7769 C   0  0  0  0  0  0  0  0  0  0  0  0
   -0.2363   12.0673   23.7692 C   0  0  0  0  0  0  0  0  0  0  0  0
    0.5800   12.6246   22.7836 C   0  0  0  0  0  0  0  0  0  0  0  0
    1.9471   12.3370   22.7431 C   0  0  0  0  0  0  0  0  0  0  0  0
   -1.5705   12.3332   23.6306 O   0  0  0  0  0  0  0  0  0  0  0  0
   -2.0316   12.6069   22.3125 C   0  0  0  0  0  0  0  0  0  0  0  0
 15 16  1  0  0  0
 16 14  1  0  0  0
 14 13  1  0  0  0
 13  1  1  0  0  0
  1  2  1  0  0  0
  1  9  1  0  0  0
  2  3  1  0  0  0
  2  7  2  0  0  0
  3  4  2  0  0  0
  4  5  1  0  0  0
  5  6  2  0  0  0
  6  7  1  0  0  0
  6 10  1  0  0  0
  7  8  1  0  0  0
  8  9  2  0  0  0
  9 17  1  0  0  0
 17 18  1  0  0  0
 18 19  1  0  0  0
 18 23  2  0  0  0
 19 20  2  0  0  0
 20 21  1  0  0  0
 21 22  2  0  0  0
 21 24  1  0  0  0
 22 23  1  0  0  0
 24 25  1  0  0  0
 10 11  1  0  0  0
 10 12  1  0  0  0
M  END
> <minimizedAffinity>
-9.63064

$$$$
data/HSP90/cocry_dataset/1uy7_PU4_LIG.pdb


 25 27  0  0  0  0  0  0  0  0999 V2000
    7.0861   13.9176   24.4713 N   0  0  0  0  0  0  0  0  0  0  0  0
    5.9834   14.5723   24.9690 C   0  0  0  0  0  0  0  0  0  0  0  0
    5.9486   15.7195   25.6698 N   0  0  0  0  0  0  0  0  0  0  0  0
    4.6826   16.0728   25.9637 C   0  0  0  0  0  0  0  0  0  0  0  0
    3.5376   15.4439   25.6229 N   0  0  0  0  0  0  0  0  0  0  0  0
    3.6261   14.2924   24.9207 C   0  0  0  0  0  0  0  0  0  0  0  0
    4.8978   13.8066   24.5747 C   0  0  0  0  0  0  0  0  0  0  0  0
    5.3183   12.7011   23.8743 N   0  0  0  0  0  0  0  0  0  0  0  0
    6.6421   12.7567   23.8494 C   0  0  0  0  0  0  0  0  0  0  0  0
    2.4404   13.6725   24.5410 N   0  0  0  0  0  0  0  0  0  0  0  0
    1.6747   14.3316   24.5273 H   0  0  0  0  0  0  0  0  0  0  0  0
    2.5555   13.0773   23.7268 H   0  0  0  0  0  0  0  0  0  0  0  0
    8.4351   14.4380   24.6154 C   0  0  0  0  0  0  0  0  0  0  0  0
    9.0504   14.1836   25.9901 C   0  0  0  0  0  0  0  0  0  0  0  0
   11.3889   14.8152   26.6389 C   0  0  0  0  0  0  0  0  0  0  0  0
    9.9717   15.3228   26.4204 C   0  0  0  0  0  0  0  0  0  0  0  0
    7.4959   11.7116   23.1685 C   0  0  0  0  0  0  0  0  0  0  0  0
    7.1847   10.2868   23.5708 C   0  0  0  0  0  0  0  0  0  0  0  0
    8.2133    9.3776   23.8510 C   0  0  0  0  0  0  0  0  0  0  0  0
    7.9282    8.0353   24.1267 C   0  0  0  0  0  0  0  0  0  0  0  0
    6.6082    7.5869   24.1373 C   0  0  0  0  0  0  0  0  0  0  0  0
    5.5764    8.5118   23.9695 C   0  0  0  0  0  0  0  0  0  0  0  0
    5.8583    9.8523   23.6918 C   0  0  0  0  0  0  0  0  0  0  0  0
    6.2009    6.2903   24.2886 O   0  0  0  0  0  0  0  0  0  0  0  0
    6.2648    5.7523   25.6046 C   0  0  0  0  0  0  0  0  0  0  0  0
 15 16  1  0  0  0
 16 14  1  0  0  0
 14 13  1  0  0  0
 13  1  1  0  0  0
  1  2  1  0  0  0
  1  9  1  0  0  0
  2  3  1  0  0  0
  2  7  2  0  0  0
  3  4  2  0  0  0
  4  5  1  0  0  0
  5  6  2  0  0  0
  6  7  1  0  0  0
  6 10  1  0  0  0
  7  8  1  0  0  0
  8  9  2  0  0  0
  9 17  1  0  0  0
 17 18  1  0  0  0
 18 19  1  0  0  0
 18 23  2  0  0  0
 19 20  2  0  0  0
 20 21  1  0  0  0
 21 22  2  0  0  0
 21 24  1  0  0  0
 22 23  1  0  0  0
 24 25  1  0  0  0
 10 11  1  0  0  0
 10 12  1  0  0  0
M  END
> <minimizedAffinity>
-9.49771

$$$$
data/HSP90/cocry_dataset/1uy7_PU4_LIG.pdb


 25 27  0  0  0  0  0  0  0  0999 V2000
    6.4381   12.2094   23.5749 N   0  0  0  0  0  0  0  0  0  0  0  0
    6.8359   13.4160   24.1021 C   0  0  0  0  0  0  0  0  0  0  0  0
    8.0641   13.9634   24.0816 N   0  0  0  0  0  0  0  0  0  0  0  0
    8.0684   15.1733   24.6733 C   0  0  0  0  0  0  0  0  0  0  0  0
    7.0297   15.8427   25.2171 N   0  0  0  0  0  0  0  0  0  0  0  0
    5.8158   15.2483   25.2156 C   0  0  0  0  0  0  0  0  0  0  0  0
    5.6888   13.9700   24.6474 C   0  0  0  0  0  0  0  0  0  0  0  0
    4.6198   13.1217   24.4821 N   0  0  0  0  0  0  0  0  0  0  0  0
    5.0894   12.0456   23.8675 C   0  0  0  0  0  0  0  0  0  0  0  0
    4.7446   15.9616   25.7430 N   0  0  0  0  0  0  0  0  0  0  0  0
    4.9315   16.9545   25.7363 H   0  0  0  0  0  0  0  0  0  0  0  0
    3.8514   15.6546   25.3711 H   0  0  0  0  0  0  0  0  0  0  0  0
    7.3449   11.3369   22.8483 C   0  0  0  0  0  0  0  0  0  0  0  0
    8.0680   10.3240   23.7338 C   0  0  0  0  0  0  0  0  0  0  0  0
    7.7901    7.9091   24.3494 C   0  0  0  0  0  0  0  0  0  0  0  0
    7.9242    8.8996   23.2028 C   0  0  0  0  0  0  0  0  0  0  0  0
    4.2210   10.8638   23.5012 C   0  0  0  0  0  0  0  0  0  0  0  0
    2.7339   11.1201   23.6082 C   0  0  0  0  0  0  0  0  0  0  0  0
    2.1232   12.1346   22.8591 C   0  0  0  0  0  0  0  0  0  0  0  0
    0.7673   12.4358   23.0317 C   0  0  0  0  0  0  0  0  0  0  0  0
    0.0007   11.7175   23.9482 C   0  0  0  0  0  0  0  0  0  0  0  0
    0.5776   10.6345   24.6134 C   0  0  0  0  0  0  0  0  0  0  0  0
    1.9318   10.3329   24.4447 C   0  0  0  0  0  0  0  0  0  0  0  0
   -1.2989   11.9758   24.2865 O   0  0  0  0  0  0  0  0  0  0  0  0
   -2.0454   10.8890   24.8218 C   0  0  0  0  0  0  0  0  0  0  0  0
 15 16  1  0  0  0
 16 14  1  0  0  0
 14 13  1  0  0  0
 13  1  1  0  0  0
  1  2  1  0  0  0
  1  9  1  0  0  0
  2  3  1  0  0  0
  2  7  2  0  0  0
  3  4  2  0  0  0
  4  5  1  0  0  0
  5  6  2  0  0  0
  6  7  1  0  0  0
  6 10  1  0  0  0
  7  8  1  0  0  0
  8  9  2  0  0  0
  9 17  1  0  0  0
 17 18  1  0  0  0
 18 19  1  0  0  0
 18 23  2  0  0  0
 19 20  2  0  0  0
 20 21  1  0  0  0
 21 22  2  0  0  0
 21 24  1  0  0  0
 22 23  1  0  0  0
 24 25  1  0  0  0
 10 11  1  0  0  0
 10 12  1  0  0  0
M  END
> <minimizedAffinity>
-9.27867

$$$$
