data/HSP90/cocry_dataset/1uy7_PU4_LIG.pdb
 OpenBabel03092321123D

 25 27  0  0  0  0  0  0  0  0999 V2000
    6.3021   12.2251   23.6060 N   0  0  0  0  0  0  0  0  0  0  0  0
    6.8156   13.3956   24.1143 C   0  0  0  0  0  0  0  0  0  0  0  0
    8.0862   13.8329   24.0629 N   0  0  0  0  0  0  0  0  0  0  0  0
    8.2095   15.0416   24.6441 C   0  0  0  0  0  0  0  0  0  0  0  0
    7.2458   15.8031   25.2044 N   0  0  0  0  0  0  0  0  0  0  0  0
    5.9848   15.3175   25.2340 C   0  0  0  0  0  0  0  0  0  0  0  0
    5.7337   14.0516   24.6794 C   0  0  0  0  0  0  0  0  0  0  0  0
    4.5912   13.2993   24.5442 N   0  0  0  0  0  0  0  0  0  0  0  0
    4.9510   12.1821   23.9289 C   0  0  0  0  0  0  0  0  0  0  0  0
    4.9921   16.1255   25.7781 N   0  0  0  0  0  0  0  0  0  0  0  0
    5.2651   17.0981   25.7591 H   0  0  0  0  0  0  0  0  0  0  0  0
    4.0675   15.8956   25.4281 H   0  0  0  0  0  0  0  0  0  0  0  0
    7.1126   11.2717   22.8674 C   0  0  0  0  0  0  0  0  0  0  0  0
    7.8406   10.2637   23.7546 C   0  0  0  0  0  0  0  0  0  0  0  0
    8.1545    7.8000   24.1012 C   0  0  0  0  0  0  0  0  0  0  0  0
    7.1646    8.8946   23.7328 C   0  0  0  0  0  0  0  0  0  0  0  0
    3.9745   11.0788   23.5912 C   0  0  0  0  0  0  0  0  0  0  0  0
    2.5183   11.4768   23.6900 C   0  0  0  0  0  0  0  0  0  0  0  0
    1.7153   11.0119   24.7400 C   0  0  0  0  0  0  0  0  0  0  0  0
    0.3461   11.2999   24.7769 C   0  0  0  0  0  0  0  0  0  0  0  0
   -0.2363   12.0673   23.7692 C   0  0  0  0  0  0  0  0  0  0  0  0
    0.5800   12.6246   22.7836 C   0  0  0  0  0  0  0  0  0  0  0  0
    1.9471   12.3370   22.7431 C   0  0  0  0  0  0  0  0  0  0  0  0
   -1.5705   12.3332   23.6306 O   0  0  0  0  0  0  0  0  0  0  0  0
   -2.0316   12.6069   22.3125 C   0  0  0  0  0  0  0  0  0  0  0  0
  1  2  1  0  0  0  0
  1  9  1  0  0  0  0
  2  3  1  0  0  0  0
  2  7  2  0  0  0  0
  3  4  2  0  0  0  0
  4  5  1  0  0  0  0
  5  6  2  0  0  0  0
  6  7  1  0  0  0  0
  6 10  1  0  0  0  0
  7  8  1  0  0  0  0
  8  9  2  0  0  0  0
  9 17  1  0  0  0  0
 10 11  1  0  0  0  0
 10 12  1  0  0  0  0
 13  1  1  0  0  0  0
 14 13  1  0  0  0  0
 15 16  1  0  0  0  0
 16 14  1  0  0  0  0
 17 18  1  0  0  0  0
 18 19  1  0  0  0  0
 18 23  2  0  0  0  0
 19 20  2  0  0  0  0
 20 21  1  0  0  0  0
 21 22  2  0  0  0  0
 21 24  1  0  0  0  0
 22 23  1  0  0  0  0
 24 25  1  0  0  0  0
M  END
>  <minimizedAffinity>
-9.63064

$$$$
