data/HSP90/cocry_dataset/1uy7_PU4_LIG.pdb
 OpenBabel03092321123D

 25 27  0  0  0  0  0  0  0  0999 V2000
    7.0861   13.9176   24.4713 N   0  0  0  0  0  0  0  0  0  0  0  0
    5.9834   14.5723   24.9690 C   0  0  0  0  0  0  0  0  0  0  0  0
    5.9486   15.7195   25.6698 N   0  0  0  0  0  0  0  0  0  0  0  0
    4.6826   16.0728   25.9637 C   0  0  0  0  0  0  0  0  0  0  0  0
    3.5376   15.4439   25.6229 N   0  0  0  0  0  0  0  0  0  0  0  0
    3.6261   14.2924   24.9207 C   0  0  0  0  0  0  0  0  0  0  0  0
    4.8978   13.8066   24.5747 C   0  0  0  0  0  0  0  0  0  0  0  0
    5.3183   12.7011   23.8743 N   0  0  0  0  0  0  0  0  0  0  0  0
    6.6421   12.7567   23.8494 C   0  0  0  0  0  0  0  0  0  0  0  0
    2.4404   13.6725   24.5410 N   0  0  0  0  0  0  0  0  0  0  0  0
    1.6747   14.3316   24.5273 H   0  0  0  0  0  0  0  0  0  0  0  0
    2.5555   13.0773   23.7268 H   0  0  0  0  0  0  0  0  0  0  0  0
    8.4351   14.4380   24.6154 C   0  0  0  0  0  0  0  0  0  0  0  0
    9.0504   14.1836   25.9901 C   0  0  0  0  0  0  0  0  0  0  0  0
   11.3889   14.8152   26.6389 C   0  0  0  0  0  0  0  0  0  0  0  0
    9.9717   15.3228   26.4204 C   0  0  0  0  0  0  0  0  0  0  0  0
    7.4959   11.7116   23.1685 C   0  0  0  0  0  0  0  0  0  0  0  0
    7.1847   10.2868   23.5708 C   0  0  0  0  0  0  0  0  0  0  0  0
    8.2133    9.3776   23.8510 C   0  0  0  0  0  0  0  0  0  0  0  0
    7.9282    8.0353   24.1267 C   0  0  0  0  0  0  0  0  0  0  0  0
    6.6082    7.5869   24.1373 C   0  0  0  0  0  0  0  0  0  0  0  0
    5.5764    8.5118   23.9695 C   0  0  0  0  0  0  0  0  0  0  0  0
    5.8583    9.8523   23.6918 C   0  0  0  0  0  0  0  0  0  0  0  0
    6.2009    6.2903   24.2886 O   0  0  0  0  0  0  0  0  0  0  0  0
    6.2648    5.7523   25.6046 C   0  0  0  0  0  0  0  0  0  0  0  0
  1  2  1  0  0  0  0
  1  9  1  0  0  0  0
  2  3  1  0  0  0  0
  2  7  2  0  0  0  0
  3  4  2  0  0  0  0
  4  5  1  0  0  0  0
  5  6  2  0  0  0  0
  6  7  1  0  0  0  0
  6 10  1  0  0  0  0
  7  8  1  0  0  0  0
  8  9  2  0  0  0  0
  9 17  1  0  0  0  0
 10 11  1  0  0  0  0
 10 12  1  0  0  0  0
 13  1  1  0  0  0  0
 14 13  1  0  0  0  0
 15 16  1  0  0  0  0
 16 14  1  0  0  0  0
 17 18  1  0  0  0  0
 18 19  1  0  0  0  0
 18 23  2  0  0  0  0
 19 20  2  0  0  0  0
 20 21  1  0  0  0  0
 21 22  2  0  0  0  0
 21 24  1  0  0  0  0
 22 23  1  0  0  0  0
 24 25  1  0  0  0  0
M  END
>  <minimizedAffinity>
-9.49771

$$$$
