data/HSP90/cocry_dataset/1uy8_PU5_LIG.pdb
 OpenBabel03092321123D

 25 27  0  0  0  0  0  0  0  0999 V2000
    6.1901   12.2081   23.5983 N   0  0  0  0  0  0  0  0  0  0  0  0
    6.6930   13.3857   24.1023 C   0  0  0  0  0  0  0  0  0  0  0  0
    7.9586   13.8338   24.0360 N   0  0  0  0  0  0  0  0  0  0  0  0
    8.0765   15.0419   24.6150 C   0  0  0  0  0  0  0  0  0  0  0  0
    7.1136   15.7912   25.1923 N   0  0  0  0  0  0  0  0  0  0  0  0
    5.8579   15.2895   25.2439 C   0  0  0  0  0  0  0  0  0  0  0  0
    5.6130   14.0280   24.6745 C   0  0  0  0  0  0  0  0  0  0  0  0
    4.4693   13.2723   24.5406 N   0  0  0  0  0  0  0  0  0  0  0  0
    4.8409   12.1551   23.9137 C   0  0  0  0  0  0  0  0  0  0  0  0
    4.8711   16.0733   25.8291 N   0  0  0  0  0  0  0  0  0  0  0  0
    5.1270   17.0530   25.8198 H   0  0  0  0  0  0  0  0  0  0  0  0
    3.9386   15.8320   25.5087 H   0  0  0  0  0  0  0  0  0  0  0  0
    7.0081   11.2575   22.8723 C   0  0  0  0  0  0  0  0  0  0  0  0
    7.8034   10.2821   23.7410 C   0  0  0  0  0  0  0  0  0  0  0  0
    8.1897    7.8018   23.9139 C   0  0  0  0  0  0  0  0  0  0  0  0
    7.1460    8.9058   23.8702 C   0  0  0  0  0  0  0  0  0  0  0  0
    3.8931   11.0272   23.6096 C   0  0  0  0  0  0  0  0  0  0  0  0
    2.4412   11.4475   23.6451 C   0  0  0  0  0  0  0  0  0  0  0  0
    1.8978   12.2232   22.6122 C   0  0  0  0  0  0  0  0  0  0  0  0
    0.6080   12.7408   22.7234 C   0  0  0  0  0  0  0  0  0  0  0  0
   -0.1652   12.4665   23.8536 C   0  0  0  0  0  0  0  0  0  0  0  0
    0.3275   11.6236   24.8491 C   0  0  0  0  0  0  0  0  0  0  0  0
    1.6221   11.1060   24.7315 C   0  0  0  0  0  0  0  0  0  0  0  0
   -0.3370   11.2454   25.9839 O   0  0  0  0  0  0  0  0  0  0  0  0
   -0.0703    9.9370   26.4746 C   0  0  0  0  0  0  0  0  0  0  0  0
  1  2  1  0  0  0  0
  1  9  1  0  0  0  0
  2  3  1  0  0  0  0
  2  7  2  0  0  0  0
  3  4  2  0  0  0  0
  4  5  1  0  0  0  0
  5  6  2  0  0  0  0
  6  7  1  0  0  0  0
  6 10  1  0  0  0  0
  7  8  1  0  0  0  0
  8  9  2  0  0  0  0
  9 17  1  0  0  0  0
 10 11  1  0  0  0  0
 10 12  1  0  0  0  0
 13  1  1  0  0  0  0
 14 13  1  0  0  0  0
 15 16  1  0  0  0  0
 16 14  1  0  0  0  0
 17 18  1  0  0  0  0
 18 19  1  0  0  0  0
 18 23  2  0  0  0  0
 19 20  2  0  0  0  0
 20 21  1  0  0  0  0
 21 22  2  0  0  0  0
 22 23  1  0  0  0  0
 22 24  1  0  0  0  0
 24 25  1  0  0  0  0
M  END
>  <minimizedAffinity>
-9.86225

$$$$
