data/HSP90/cocry_dataset/1uy9_PU6_LIG.pdb
 OpenBabel03092321123D

 26 29  0  0  0  0  0  0  0  0999 V2000
    4.4767   11.8940   24.1050 N   0  0  0  0  0  0  0  0  0  0  0  0
    5.1289   10.7804   23.6237 C   0  0  0  0  0  0  0  0  0  0  0  0
    4.6110    9.5580   23.3987 N   0  0  0  0  0  0  0  0  0  0  0  0
    5.5547    8.6955   22.9842 C   0  0  0  0  0  0  0  0  0  0  0  0
    6.8557    8.9400   22.7466 N   0  0  0  0  0  0  0  0  0  0  0  0
    7.3275   10.1953   22.9692 C   0  0  0  0  0  0  0  0  0  0  0  0
    6.4375   11.1771   23.4400 C   0  0  0  0  0  0  0  0  0  0  0  0
    6.5962   12.5036   23.7704 N   0  0  0  0  0  0  0  0  0  0  0  0
    5.4086   12.9184   24.1945 C   0  0  0  0  0  0  0  0  0  0  0  0
    8.6694   10.4397   22.7019 N   0  0  0  0  0  0  0  0  0  0  0  0
    9.0424    9.7614   22.0522 H   0  0  0  0  0  0  0  0  0  0  0  0
    8.8589   11.4186   22.5184 H   0  0  0  0  0  0  0  0  0  0  0  0
    3.0522   11.9133   24.3898 C   0  0  0  0  0  0  0  0  0  0  0  0
    2.1846   11.7889   23.1330 C   0  0  0  0  0  0  0  0  0  0  0  0
    1.2791   13.8957   24.1678 C   0  0  0  0  0  0  0  0  0  0  0  0
    1.0632   12.8289   23.1055 C   0  0  0  0  0  0  0  0  0  0  0  0
    5.1453   14.3275   24.6817 C   0  0  0  0  0  0  0  0  0  0  0  0
    6.3872   14.9235   25.3077 C   0  0  0  0  0  0  0  0  0  0  0  0
    7.5210   15.1162   24.5105 C   0  0  0  0  0  0  0  0  0  0  0  0
    8.7263   15.1609   25.1590 C   0  0  0  0  0  0  0  0  0  0  0  0
    9.9331   14.9442   24.5620 O   0  0  0  0  0  0  0  0  0  0  0  0
   10.6257   14.4094   25.7077 C   0  0  0  0  0  0  0  0  0  0  0  0
   10.1056   14.9476   26.9424 O   0  0  0  0  0  0  0  0  0  0  0  0
    8.8229   15.1804   26.5348 C   0  0  0  0  0  0  0  0  0  0  0  0
    7.7150   15.2402   27.3447 C   0  0  0  0  0  0  0  0  0  0  0  0
    6.4763   15.0815   26.7202 C   0  0  0  0  0  0  0  0  0  0  0  0
  1  2  1  0  0  0  0
  1  9  1  0  0  0  0
  2  3  1  0  0  0  0
  2  7  2  0  0  0  0
  3  4  2  0  0  0  0
  4  5  1  0  0  0  0
  5  6  2  0  0  0  0
  6  7  1  0  0  0  0
  6 10  1  0  0  0  0
  7  8  1  0  0  0  0
  8  9  2  0  0  0  0
  9 17  1  0  0  0  0
 10 11  1  0  0  0  0
 10 12  1  0  0  0  0
 13  1  1  0  0  0  0
 14 13  1  0  0  0  0
 15 16  1  0  0  0  0
 16 14  1  0  0  0  0
 17 18  1  0  0  0  0
 18 19  1  0  0  0  0
 18 26  2  0  0  0  0
 19 20  2  0  0  0  0
 20 21  1  0  0  0  0
 20 24  1  0  0  0  0
 21 22  1  0  0  0  0
 22 23  1  0  0  0  0
 23 24  1  0  0  0  0
 24 25  2  0  0  0  0
 25 26  1  0  0  0  0
M  END
>  <minimizedAffinity>
-9.10969

$$$$
