data/HSP90/cocry_dataset/1uy9_PU6_LIG.pdb
 OpenBabel03092321123D

 26 29  0  0  0  0  0  0  0  0999 V2000
    6.1117   12.2310   23.6128 N   0  0  0  0  0  0  0  0  0  0  0  0
    6.7066   13.3753   24.0963 C   0  0  0  0  0  0  0  0  0  0  0  0
    8.0086   13.7131   24.0356 N   0  0  0  0  0  0  0  0  0  0  0  0
    8.2419   14.8774   24.6652 C   0  0  0  0  0  0  0  0  0  0  0  0
    7.3522   15.6922   25.2595 N   0  0  0  0  0  0  0  0  0  0  0  0
    6.0456   15.3177   25.2774 C   0  0  0  0  0  0  0  0  0  0  0  0
    5.6853   14.0971   24.6790 C   0  0  0  0  0  0  0  0  0  0  0  0
    4.4839   13.4398   24.5428 N   0  0  0  0  0  0  0  0  0  0  0  0
    4.7598   12.3013   23.9183 C   0  0  0  0  0  0  0  0  0  0  0  0
    5.1334   16.1775   25.8778 N   0  0  0  0  0  0  0  0  0  0  0  0
    5.4908   17.1221   25.9148 H   0  0  0  0  0  0  0  0  0  0  0  0
    4.1888   16.0464   25.5342 H   0  0  0  0  0  0  0  0  0  0  0  0
    6.8413   11.2115   22.8787 C   0  0  0  0  0  0  0  0  0  0  0  0
    7.6469   10.2758   23.7861 C   0  0  0  0  0  0  0  0  0  0  0  0
    8.1152    7.8109   23.9710 C   0  0  0  0  0  0  0  0  0  0  0  0
    7.0352    8.8754   23.8529 C   0  0  0  0  0  0  0  0  0  0  0  0
    3.7123   11.2596   23.5870 C   0  0  0  0  0  0  0  0  0  0  0  0
    2.3187   11.8336   23.7200 C   0  0  0  0  0  0  0  0  0  0  0  0
    1.5777   11.5509   24.8729 C   0  0  0  0  0  0  0  0  0  0  0  0
    0.2151   11.6301   24.7609 C   0  0  0  0  0  0  0  0  0  0  0  0
   -0.6660   11.0287   25.6105 O   0  0  0  0  0  0  0  0  0  0  0  0
   -1.7407   10.8299   24.6704 C   0  0  0  0  0  0  0  0  0  0  0  0
   -1.7425   11.8440   23.6427 O   0  0  0  0  0  0  0  0  0  0  0  0
   -0.4045   12.1179   23.6292 C   0  0  0  0  0  0  0  0  0  0  0  0
    0.3050   12.6339   22.5722 C   0  0  0  0  0  0  0  0  0  0  0  0
    1.6904   12.4633   22.6079 C   0  0  0  0  0  0  0  0  0  0  0  0
  1  2  1  0  0  0  0
  1  9  1  0  0  0  0
  2  3  1  0  0  0  0
  2  7  2  0  0  0  0
  3  4  2  0  0  0  0
  4  5  1  0  0  0  0
  5  6  2  0  0  0  0
  6  7  1  0  0  0  0
  6 10  1  0  0  0  0
  7  8  1  0  0  0  0
  8  9  2  0  0  0  0
  9 17  1  0  0  0  0
 10 11  1  0  0  0  0
 10 12  1  0  0  0  0
 13  1  1  0  0  0  0
 14 13  1  0  0  0  0
 15 16  1  0  0  0  0
 16 14  1  0  0  0  0
 17 18  1  0  0  0  0
 18 19  1  0  0  0  0
 18 26  2  0  0  0  0
 19 20  2  0  0  0  0
 20 21  1  0  0  0  0
 20 24  1  0  0  0  0
 21 22  1  0  0  0  0
 22 23  1  0  0  0  0
 23 24  1  0  0  0  0
 24 25  2  0  0  0  0
 25 26  1  0  0  0  0
M  END
>  <minimizedAffinity>
-9.91392

$$$$
