data/HSP90/cocry_dataset/1uyc_PU7_LIG.pdb


 27 29  0  0  0  0  0  0  0  0999 V2000
    4.9743   12.1197   23.7868 C   0  0  0  0  0  0  0  0  0  0  0  0
    4.5573   13.2160   24.4071 N   0  0  0  0  0  0  0  0  0  0  0  0
    5.6864   13.9724   24.6221 C   0  0  0  0  0  0  0  0  0  0  0  0
    5.8904   15.2072   25.2701 C   0  0  0  0  0  0  0  0  0  0  0  0
    4.8624   15.9465   25.8486 N   0  0  0  0  0  0  0  0  0  0  0  0
    7.1484   15.6975   25.3341 N   0  0  0  0  0  0  0  0  0  0  0  0
    8.1493   14.9692   24.7899 C   0  0  0  0  0  0  0  0  0  0  0  0
    8.0734   13.7905   24.1432 N   0  0  0  0  0  0  0  0  0  0  0  0
    6.8021   13.3473   24.0961 C   0  0  0  0  0  0  0  0  0  0  0  0
    6.3303   12.1964   23.5184 N   0  0  0  0  0  0  0  0  0  0  0  0
    3.9542   15.7177   25.4711 H   0  0  0  0  0  0  0  0  0  0  0  0
    5.1114   16.9240   25.9347 H   0  0  0  0  0  0  0  0  0  0  0  0
    4.0973   10.9337   23.4908 C   0  0  0  0  0  0  0  0  0  0  0  0
    2.0875   10.5843   25.0272 C   0  0  0  0  0  0  0  0  0  0  0  0
    0.7350   10.8008   25.3113 C   0  0  0  0  0  0  0  0  0  0  0  0
   -0.0663   11.5635   24.4525 C   0  0  0  0  0  0  0  0  0  0  0  0
    0.4797   12.1361   23.3084 C   0  0  0  0  0  0  0  0  0  0  0  0
    1.8295   11.9238   23.0245 C   0  0  0  0  0  0  0  0  0  0  0  0
    2.6441   11.1371   23.8624 C   0  0  0  0  0  0  0  0  0  0  0  0
    2.3940    8.7851   26.5576 C   0  0  0  0  0  0  0  0  0  0  0  0
    2.9419    9.8808   25.8349 O   0  0  0  0  0  0  0  0  0  0  0  0
   -0.1837   12.9157   22.4028 O   0  0  0  0  0  0  0  0  0  0  0  0
   -1.5493   12.6020   22.1622 C   0  0  0  0  0  0  0  0  0  0  0  0
    7.1739   11.2134   22.8689 C   0  0  0  0  0  0  0  0  0  0  0  0
    7.7876   10.1680   23.8062 C   0  0  0  0  0  0  0  0  0  0  0  0
    7.2926    8.7418   23.5566 C   0  0  0  0  0  0  0  0  0  0  0  0
    8.1717    7.7176   24.2581 C   0  0  0  0  0  0  0  0  0  0  0  0
 20 21  1  0  0  0
 21 14  1  0  0  0
 14 15  1  0  0  0
 14 19  2  0  0  0
 15 16  2  0  0  0
 16 17  1  0  0  0
 17 22  1  0  0  0
 17 18  2  0  0  0
 22 23  1  0  0  0
 18 19  1  0  0  0
 19 13  1  0  0  0
 13  1  1  0  0  0
  1  2  2  0  0  0
  1 10  1  0  0  0
  2  3  1  0  0  0
  3  4  1  0  0  0
  3  9  2  0  0  0
  4  5  1  0  0  0
  4  6  2  0  0  0
  5 11  1  0  0  0
  5 12  1  0  0  0
  6  7  1  0  0  0
  7  8  2  0  0  0
  8  9  1  0  0  0
  9 10  1  0  0  0
 10 24  1  0  0  0
 24 25  1  0  0  0
 25 26  1  0  0  0
 26 27  1  0  0  0
M  END
> <minimizedAffinity>
-9.46068

$$$$
data/HSP90/cocry_dataset/1uyc_PU7_LIG.pdb


 27 29  0  0  0  0  0  0  0  0999 V2000
    5.0454   11.9063   23.7024 C   0  0  0  0  0  0  0  0  0  0  0  0
    4.5115   12.9503   24.3234 N   0  0  0  0  0  0  0  0  0  0  0  0
    5.5584   13.8069   24.5753 C   0  0  0  0  0  0  0  0  0  0  0  0
    5.6289   15.0469   25.2414 C   0  0  0  0  0  0  0  0  0  0  0  0
    4.5217   15.6784   25.8013 N   0  0  0  0  0  0  0  0  0  0  0  0
    6.8329   15.6527   25.3428 N   0  0  0  0  0  0  0  0  0  0  0  0
    7.9111   15.0291   24.8167 C   0  0  0  0  0  0  0  0  0  0  0  0
    7.9629   13.8570   24.1556 N   0  0  0  0  0  0  0  0  0  0  0  0
    6.7407   13.2966   24.0714 C   0  0  0  0  0  0  0  0  0  0  0  0
    6.3941   12.1140   23.4695 N   0  0  0  0  0  0  0  0  0  0  0  0
    3.6487   15.3699   25.3983 H   0  0  0  0  0  0  0  0  0  0  0  0
    4.6750   16.6738   25.9041 H   0  0  0  0  0  0  0  0  0  0  0  0
    4.2919   10.6470   23.3714 C   0  0  0  0  0  0  0  0  0  0  0  0
    1.8034   11.0316   23.7971 C   0  0  0  0  0  0  0  0  0  0  0  0
    0.6705   10.8277   24.5922 C   0  0  0  0  0  0  0  0  0  0  0  0
    0.7414   10.0574   25.7596 C   0  0  0  0  0  0  0  0  0  0  0  0
    1.9421    9.4646   26.1365 C   0  0  0  0  0  0  0  0  0  0  0  0
    3.0728    9.6643   25.3433 C   0  0  0  0  0  0  0  0  0  0  0  0
    3.0266   10.4582   24.1805 C   0  0  0  0  0  0  0  0  0  0  0  0
    0.7932   12.7280   22.4650 C   0  0  0  0  0  0  0  0  0  0  0  0
    1.8052   11.7415   22.6253 O   0  0  0  0  0  0  0  0  0  0  0  0
    2.1409    8.6759   27.2349 O   0  0  0  0  0  0  0  0  0  0  0  0
    0.9807    8.1703   27.8824 C   0  0  0  0  0  0  0  0  0  0  0  0
    7.3425   11.2235   22.8314 C   0  0  0  0  0  0  0  0  0  0  0  0
    8.0284   10.2276   23.7727 C   0  0  0  0  0  0  0  0  0  0  0  0
    8.0096    8.7825   23.2702 C   0  0  0  0  0  0  0  0  0  0  0  0
    7.7861    7.8006   24.4103 C   0  0  0  0  0  0  0  0  0  0  0  0
 20 21  1  0  0  0
 21 14  1  0  0  0
 14 15  1  0  0  0
 14 19  2  0  0  0
 15 16  2  0  0  0
 16 17  1  0  0  0
 17 22  1  0  0  0
 17 18  2  0  0  0
 22 23  1  0  0  0
 18 19  1  0  0  0
 19 13  1  0  0  0
 13  1  1  0  0  0
  1  2  2  0  0  0
  1 10  1  0  0  0
  2  3  1  0  0  0
  3  4  1  0  0  0
  3  9  2  0  0  0
  4  5  1  0  0  0
  4  6  2  0  0  0
  5 11  1  0  0  0
  5 12  1  0  0  0
  6  7  1  0  0  0
  7  8  2  0  0  0
  8  9  1  0  0  0
  9 10  1  0  0  0
 10 24  1  0  0  0
 24 25  1  0  0  0
 25 26  1  0  0  0
 26 27  1  0  0  0
M  END
> <minimizedAffinity>
-9.30534

$$$$
data/HSP90/cocry_dataset/1uyc_PU7_LIG.pdb


 27 29  0  0  0  0  0  0  0  0999 V2000
    6.8132   11.3919   23.4884 C   0  0  0  0  0  0  0  0  0  0  0  0
    7.7533   10.4805   23.7032 N   0  0  0  0  0  0  0  0  0  0  0  0
    7.0806    9.3111   23.9743 C   0  0  0  0  0  0  0  0  0  0  0  0
    7.5267    8.0203   24.3223 C   0  0  0  0  0  0  0  0  0  0  0  0
    8.8717    7.6838   24.4477 N   0  0  0  0  0  0  0  0  0  0  0  0
    6.6013    7.0611   24.5470 N   0  0  0  0  0  0  0  0  0  0  0  0
    5.2947    7.3938   24.4450 C   0  0  0  0  0  0  0  0  0  0  0  0
    4.7548    8.5821   24.1133 N   0  0  0  0  0  0  0  0  0  0  0  0
    5.7136    9.5017   23.8898 C   0  0  0  0  0  0  0  0  0  0  0  0
    5.5556   10.8145   23.5258 N   0  0  0  0  0  0  0  0  0  0  0  0
    9.4816    8.3102   23.9425 H   0  0  0  0  0  0  0  0  0  0  0  0
    9.0163    6.6874   24.3415 H   0  0  0  0  0  0  0  0  0  0  0  0
    7.0887   12.8596   23.3058 C   0  0  0  0  0  0  0  0  0  0  0  0
    6.5994   14.4604   25.2346 C   0  0  0  0  0  0  0  0  0  0  0  0
    7.0170   15.0984   26.4074 C   0  0  0  0  0  0  0  0  0  0  0  0
    8.2907   14.8619   26.9394 C   0  0  0  0  0  0  0  0  0  0  0  0
    9.1562   13.9690   26.3158 C   0  0  0  0  0  0  0  0  0  0  0  0
    8.7406   13.3292   25.1473 C   0  0  0  0  0  0  0  0  0  0  0  0
    7.4735   13.5753   24.5829 C   0  0  0  0  0  0  0  0  0  0  0  0
    4.3396   15.1654   25.4980 C   0  0  0  0  0  0  0  0  0  0  0  0
    5.3587   14.6131   24.6737 O   0  0  0  0  0  0  0  0  0  0  0  0
   10.4113   13.6343   26.7407 O   0  0  0  0  0  0  0  0  0  0  0  0
   11.4024   14.6519   26.6843 C   0  0  0  0  0  0  0  0  0  0  0  0
    4.2678   11.4557   23.3524 C   0  0  0  0  0  0  0  0  0  0  0  0
    3.3649   11.4380   24.5904 C   0  0  0  0  0  0  0  0  0  0  0  0
    1.8768   11.6080   24.2774 C   0  0  0  0  0  0  0  0  0  0  0  0
    1.5564   13.0348   23.8587 C   0  0  0  0  0  0  0  0  0  0  0  0
 20 21  1  0  0  0
 21 14  1  0  0  0
 14 15  1  0  0  0
 14 19  2  0  0  0
 15 16  2  0  0  0
 16 17  1  0  0  0
 17 22  1  0  0  0
 17 18  2  0  0  0
 22 23  1  0  0  0
 18 19  1  0  0  0
 19 13  1  0  0  0
 13  1  1  0  0  0
  1  2  2  0  0  0
  1 10  1  0  0  0
  2  3  1  0  0  0
  3  4  1  0  0  0
  3  9  2  0  0  0
  4  5  1  0  0  0
  4  6  2  0  0  0
  5 11  1  0  0  0
  5 12  1  0  0  0
  6  7  1  0  0  0
  7  8  2  0  0  0
  8  9  1  0  0  0
  9 10  1  0  0  0
 10 24  1  0  0  0
 24 25  1  0  0  0
 25 26  1  0  0  0
 26 27  1  0  0  0
M  END
> <minimizedAffinity>
-8.93747

$$$$
