data/HSP90/cocry_dataset/1uyc_PU7_LIG.pdb
 OpenBabel03092321123D

 27 29  0  0  0  0  0  0  0  0999 V2000
    5.0454   11.9063   23.7024 C   0  0  0  0  0  0  0  0  0  0  0  0
    4.5115   12.9503   24.3234 N   0  0  0  0  0  0  0  0  0  0  0  0
    5.5584   13.8069   24.5753 C   0  0  0  0  0  0  0  0  0  0  0  0
    5.6289   15.0469   25.2414 C   0  0  0  0  0  0  0  0  0  0  0  0
    4.5217   15.6784   25.8013 N   0  0  0  0  0  0  0  0  0  0  0  0
    6.8329   15.6527   25.3428 N   0  0  0  0  0  0  0  0  0  0  0  0
    7.9111   15.0291   24.8167 C   0  0  0  0  0  0  0  0  0  0  0  0
    7.9629   13.8570   24.1556 N   0  0  0  0  0  0  0  0  0  0  0  0
    6.7407   13.2966   24.0714 C   0  0  0  0  0  0  0  0  0  0  0  0
    6.3941   12.1140   23.4695 N   0  0  0  0  0  0  0  0  0  0  0  0
    3.6487   15.3699   25.3983 H   0  0  0  0  0  0  0  0  0  0  0  0
    4.6750   16.6738   25.9041 H   0  0  0  0  0  0  0  0  0  0  0  0
    4.2919   10.6470   23.3714 C   0  0  0  0  0  0  0  0  0  0  0  0
    1.8034   11.0316   23.7971 C   0  0  0  0  0  0  0  0  0  0  0  0
    0.6705   10.8277   24.5922 C   0  0  0  0  0  0  0  0  0  0  0  0
    0.7414   10.0574   25.7596 C   0  0  0  0  0  0  0  0  0  0  0  0
    1.9421    9.4646   26.1365 C   0  0  0  0  0  0  0  0  0  0  0  0
    3.0728    9.6643   25.3433 C   0  0  0  0  0  0  0  0  0  0  0  0
    3.0266   10.4582   24.1805 C   0  0  0  0  0  0  0  0  0  0  0  0
    0.7932   12.7280   22.4650 C   0  0  0  0  0  0  0  0  0  0  0  0
    1.8052   11.7415   22.6253 O   0  0  0  0  0  0  0  0  0  0  0  0
    2.1409    8.6759   27.2349 O   0  0  0  0  0  0  0  0  0  0  0  0
    0.9807    8.1703   27.8824 C   0  0  0  0  0  0  0  0  0  0  0  0
    7.3425   11.2235   22.8314 C   0  0  0  0  0  0  0  0  0  0  0  0
    8.0284   10.2276   23.7727 C   0  0  0  0  0  0  0  0  0  0  0  0
    8.0096    8.7825   23.2702 C   0  0  0  0  0  0  0  0  0  0  0  0
    7.7861    7.8006   24.4103 C   0  0  0  0  0  0  0  0  0  0  0  0
  1  2  2  0  0  0  0
  1 10  1  0  0  0  0
  2  3  1  0  0  0  0
  3  4  1  0  0  0  0
  3  9  2  0  0  0  0
  4  5  1  0  0  0  0
  4  6  2  0  0  0  0
  5 11  1  0  0  0  0
  5 12  1  0  0  0  0
  6  7  1  0  0  0  0
  7  8  2  0  0  0  0
  8  9  1  0  0  0  0
  9 10  1  0  0  0  0
 10 24  1  0  0  0  0
 13  1  1  0  0  0  0
 14 15  1  0  0  0  0
 14 19  2  0  0  0  0
 15 16  2  0  0  0  0
 16 17  1  0  0  0  0
 17 22  1  0  0  0  0
 17 18  2  0  0  0  0
 18 19  1  0  0  0  0
 19 13  1  0  0  0  0
 20 21  1  0  0  0  0
 21 14  1  0  0  0  0
 22 23  1  0  0  0  0
 24 25  1  0  0  0  0
 25 26  1  0  0  0  0
 26 27  1  0  0  0  0
M  END
>  <minimizedAffinity>
-9.30534

$$$$
