data/HSP90/cocry_dataset/1uyd_PU8_LIG.pdb
 OpenBabel03092321123D

 30 32  0  0  0  0  0  0  0  0999 V2000
    5.0621   11.9343   23.6660 C   0  0  0  0  0  0  0  0  0  0  0  0
    4.5449   12.9728   24.3112 N   0  0  0  0  0  0  0  0  0  0  0  0
    5.6042   13.8129   24.5685 C   0  0  0  0  0  0  0  0  0  0  0  0
    5.7194   14.9963   25.3218 C   0  0  0  0  0  0  0  0  0  0  0  0
    4.6635   15.5675   26.0174 N   0  0  0  0  0  0  0  0  0  0  0  0
    6.9287   15.5974   25.3962 N   0  0  0  0  0  0  0  0  0  0  0  0
    7.9718   15.0163   24.7650 C   0  0  0  0  0  0  0  0  0  0  0  0
    7.9838   13.8857   24.0289 N   0  0  0  0  0  0  0  0  0  0  0  0
    6.7602   13.3342   23.9780 C   0  0  0  0  0  0  0  0  0  0  0  0
    6.3992   12.1475   23.3885 N   0  0  0  0  0  0  0  0  0  0  0  0
    3.7499   15.2929   25.6730 H   0  0  0  0  0  0  0  0  0  0  0  0
    4.8246   16.5409   26.2377 H   0  0  0  0  0  0  0  0  0  0  0  0
    4.3200   10.6530   23.3902 C   0  0  0  0  0  0  0  0  0  0  0  0
    0.8593    9.7746   24.8213 C   0  0  0  0  0  0  0  0  0  0  0  0
    2.2682    9.8468   24.6995 C   0  0  0  0  0  0  0  0  0  0  0  0
    2.8674   10.7617   23.8243 C   0  0  0  0  0  0  0  0  0  0  0  0
    2.0581   11.7725   23.2853 C   0  0  0  0  0  0  0  0  0  0  0  0
    0.6846   11.8320   23.5507 C   0  0  0  0  0  0  0  0  0  0  0  0
    0.0527   10.7987   24.2747 C   0  0  0  0  0  0  0  0  0  0  0  0
    3.2837    8.8990   25.7558 Cl  0  0  0  0  0  0  0  0  0  0  0  0
    0.2732    7.4953   24.8159 C   0  0  0  0  0  0  0  0  0  0  0  0
    0.2850    8.7417   25.5291 O   0  0  0  0  0  0  0  0  0  0  0  0
   -1.3096   10.9089   24.3462 O   0  0  0  0  0  0  0  0  0  0  0  0
   -1.9778   10.9206   25.5954 C   0  0  0  0  0  0  0  0  0  0  0  0
    0.0739   12.9121   22.9567 O   0  0  0  0  0  0  0  0  0  0  0  0
    0.0246   12.9093   21.5329 C   0  0  0  0  0  0  0  0  0  0  0  0
    7.3467   11.2121   22.7965 C   0  0  0  0  0  0  0  0  0  0  0  0
    8.0740   10.3777   23.8138 C   0  0  0  0  0  0  0  0  0  0  0  0
    7.8787    9.0728   24.0658 C   0  0  0  0  0  0  0  0  0  0  0  0
    6.9092    8.1510   23.3965 C   0  0  0  0  0  0  0  0  0  0  0  0
  1  2  2  0  0  0  0
  1 10  1  0  0  0  0
  2  3  1  0  0  0  0
  3  4  1  0  0  0  0
  3  9  2  0  0  0  0
  4  5  1  0  0  0  0
  4  6  2  0  0  0  0
  5 11  1  0  0  0  0
  5 12  1  0  0  0  0
  6  7  1  0  0  0  0
  7  8  2  0  0  0  0
  8  9  1  0  0  0  0
  9 10  1  0  0  0  0
 10 27  1  0  0  0  0
 13  1  1  0  0  0  0
 14 15  1  0  0  0  0
 14 19  2  0  0  0  0
 15 16  2  0  0  0  0
 15 20  1  0  0  0  0
 16 17  1  0  0  0  0
 16 13  1  0  0  0  0
 17 18  2  0  0  0  0
 18 19  1  0  0  0  0
 18 25  1  0  0  0  0
 19 23  1  0  0  0  0
 21 22  1  0  0  0  0
 22 14  1  0  0  0  0
 23 24  1  0  0  0  0
 25 26  1  0  0  0  0
 27 28  1  0  0  0  0
 28 29  2  0  0  0  0
 29 30  1  0  0  0  0
M  END
>  <minimizedAffinity>
-9.76513

$$$$
