data/HSP90/cocry_dataset/1uyd_PU8_LIG.pdb
 OpenBabel03092321123D

 30 32  0  0  0  0  0  0  0  0999 V2000
    6.4932   12.5722   23.9275 C   0  0  0  0  0  0  0  0  0  0  0  0
    5.1855   12.7839   23.8424 N   0  0  0  0  0  0  0  0  0  0  0  0
    4.9461   13.9198   24.5817 C   0  0  0  0  0  0  0  0  0  0  0  0
    3.7598   14.5684   24.9730 C   0  0  0  0  0  0  0  0  0  0  0  0
    2.4919   14.1075   24.6487 N   0  0  0  0  0  0  0  0  0  0  0  0
    3.8558   15.6863   25.7282 N   0  0  0  0  0  0  0  0  0  0  0  0
    5.0859   16.1090   26.0917 C   0  0  0  0  0  0  0  0  0  0  0  0
    6.2837   15.5670   25.7885 N   0  0  0  0  0  0  0  0  0  0  0  0
    6.1342   14.4680   25.0310 C   0  0  0  0  0  0  0  0  0  0  0  0
    7.1149   13.6130   24.5914 N   0  0  0  0  0  0  0  0  0  0  0  0
    2.4725   13.4976   23.8386 H   0  0  0  0  0  0  0  0  0  0  0  0
    1.7848   14.8254   24.7304 H   0  0  0  0  0  0  0  0  0  0  0  0
    7.1787   11.3106   23.4726 C   0  0  0  0  0  0  0  0  0  0  0  0
    5.7670    7.7399   23.2419 C   0  0  0  0  0  0  0  0  0  0  0  0
    6.6309    8.8083   23.5843 C   0  0  0  0  0  0  0  0  0  0  0  0
    6.2105   10.1390   23.4628 C   0  0  0  0  0  0  0  0  0  0  0  0
    4.8430   10.3731   23.2569 C   0  0  0  0  0  0  0  0  0  0  0  0
    3.9330    9.3197   23.1065 C   0  0  0  0  0  0  0  0  0  0  0  0
    4.3903    7.9866   23.0366 C   0  0  0  0  0  0  0  0  0  0  0  0
    8.1826    8.4757   24.3103 Cl  0  0  0  0  0  0  0  0  0  0  0  0
    6.1709    5.7425   24.4192 C   0  0  0  0  0  0  0  0  0  0  0  0
    6.2595    6.4551   23.1756 O   0  0  0  0  0  0  0  0  0  0  0  0
    3.4164    7.0682   22.7523 O   0  0  0  0  0  0  0  0  0  0  0  0
    2.5411    6.5942   23.7605 C   0  0  0  0  0  0  0  0  0  0  0  0
    2.6377    9.7540   22.9453 O   0  0  0  0  0  0  0  0  0  0  0  0
    2.1142   10.5854   23.9771 C   0  0  0  0  0  0  0  0  0  0  0  0
    8.5144   13.7093   24.9853 C   0  0  0  0  0  0  0  0  0  0  0  0
    9.0034   15.1259   25.1040 C   0  0  0  0  0  0  0  0  0  0  0  0
    9.9476   15.5788   25.9452 C   0  0  0  0  0  0  0  0  0  0  0  0
   10.7320   14.7890   26.9445 C   0  0  0  0  0  0  0  0  0  0  0  0
  1  2  2  0  0  0  0
  1 10  1  0  0  0  0
  2  3  1  0  0  0  0
  3  4  1  0  0  0  0
  3  9  2  0  0  0  0
  4  5  1  0  0  0  0
  4  6  2  0  0  0  0
  5 11  1  0  0  0  0
  5 12  1  0  0  0  0
  6  7  1  0  0  0  0
  7  8  2  0  0  0  0
  8  9  1  0  0  0  0
  9 10  1  0  0  0  0
 10 27  1  0  0  0  0
 13  1  1  0  0  0  0
 14 15  1  0  0  0  0
 14 19  2  0  0  0  0
 15 16  2  0  0  0  0
 15 20  1  0  0  0  0
 16 17  1  0  0  0  0
 16 13  1  0  0  0  0
 17 18  2  0  0  0  0
 18 19  1  0  0  0  0
 18 25  1  0  0  0  0
 19 23  1  0  0  0  0
 21 22  1  0  0  0  0
 22 14  1  0  0  0  0
 23 24  1  0  0  0  0
 25 26  1  0  0  0  0
 27 28  1  0  0  0  0
 28 29  2  0  0  0  0
 29 30  1  0  0  0  0
M  END
>  <minimizedAffinity>
-9.84884

$$$$
