data/HSP90/cocry_dataset/1uyd_PU8_LIG.pdb


 30 32  0  0  0  0  0  0  0  0999 V2000
    6.4932   12.5722   23.9275 C   0  0  0  0  0  0  0  0  0  0  0  0
    5.1855   12.7839   23.8424 N   0  0  0  0  0  0  0  0  0  0  0  0
    4.9461   13.9198   24.5817 C   0  0  0  0  0  0  0  0  0  0  0  0
    3.7598   14.5684   24.9730 C   0  0  0  0  0  0  0  0  0  0  0  0
    2.4919   14.1075   24.6487 N   0  0  0  0  0  0  0  0  0  0  0  0
    3.8558   15.6863   25.7282 N   0  0  0  0  0  0  0  0  0  0  0  0
    5.0859   16.1090   26.0917 C   0  0  0  0  0  0  0  0  0  0  0  0
    6.2837   15.5670   25.7885 N   0  0  0  0  0  0  0  0  0  0  0  0
    6.1342   14.4680   25.0310 C   0  0  0  0  0  0  0  0  0  0  0  0
    7.1149   13.6130   24.5914 N   0  0  0  0  0  0  0  0  0  0  0  0
    2.4725   13.4976   23.8386 H   0  0  0  0  0  0  0  0  0  0  0  0
    1.7848   14.8254   24.7304 H   0  0  0  0  0  0  0  0  0  0  0  0
    7.1787   11.3106   23.4726 C   0  0  0  0  0  0  0  0  0  0  0  0
    5.7670    7.7399   23.2419 C   0  0  0  0  0  0  0  0  0  0  0  0
    6.6309    8.8083   23.5843 C   0  0  0  0  0  0  0  0  0  0  0  0
    6.2105   10.1390   23.4628 C   0  0  0  0  0  0  0  0  0  0  0  0
    4.8430   10.3731   23.2569 C   0  0  0  0  0  0  0  0  0  0  0  0
    3.9330    9.3197   23.1065 C   0  0  0  0  0  0  0  0  0  0  0  0
    4.3903    7.9866   23.0366 C   0  0  0  0  0  0  0  0  0  0  0  0
    8.1826    8.4757   24.3103 Cl  0  0  0  0  0  0  0  0  0  0  0  0
    6.1709    5.7425   24.4192 C   0  0  0  0  0  0  0  0  0  0  0  0
    6.2595    6.4551   23.1756 O   0  0  0  0  0  0  0  0  0  0  0  0
    3.4164    7.0682   22.7523 O   0  0  0  0  0  0  0  0  0  0  0  0
    2.5411    6.5942   23.7605 C   0  0  0  0  0  0  0  0  0  0  0  0
    2.6377    9.7540   22.9453 O   0  0  0  0  0  0  0  0  0  0  0  0
    2.1142   10.5854   23.9771 C   0  0  0  0  0  0  0  0  0  0  0  0
    8.5144   13.7093   24.9853 C   0  0  0  0  0  0  0  0  0  0  0  0
    9.0034   15.1259   25.1040 C   0  0  0  0  0  0  0  0  0  0  0  0
    9.9476   15.5788   25.9452 C   0  0  0  0  0  0  0  0  0  0  0  0
   10.7320   14.7890   26.9445 C   0  0  0  0  0  0  0  0  0  0  0  0
 21 22  1  0  0  0
 22 14  1  0  0  0
 14 15  1  0  0  0
 14 19  2  0  0  0
 15 16  2  0  0  0
 15 20  1  0  0  0
 16 17  1  0  0  0
 16 13  1  0  0  0
 17 18  2  0  0  0
 18 19  1  0  0  0
 18 25  1  0  0  0
 19 23  1  0  0  0
 23 24  1  0  0  0
 25 26  1  0  0  0
 13  1  1  0  0  0
  1  2  2  0  0  0
  1 10  1  0  0  0
  2  3  1  0  0  0
  3  4  1  0  0  0
  3  9  2  0  0  0
  4  5  1  0  0  0
  4  6  2  0  0  0
  5 11  1  0  0  0
  5 12  1  0  0  0
  6  7  1  0  0  0
  7  8  2  0  0  0
  8  9  1  0  0  0
  9 10  1  0  0  0
 10 27  1  0  0  0
 27 28  1  0  0  0
 28 29  2  0  0  0
 29 30  1  0  0  0
M  END
> <minimizedAffinity>
-9.84884

$$$$
data/HSP90/cocry_dataset/1uyd_PU8_LIG.pdb


 30 32  0  0  0  0  0  0  0  0999 V2000
    6.9685   12.4362   24.0069 C   0  0  0  0  0  0  0  0  0  0  0  0
    5.6532   12.5256   23.8520 N   0  0  0  0  0  0  0  0  0  0  0  0
    5.2788   13.6679   24.5220 C   0  0  0  0  0  0  0  0  0  0  0  0
    4.0223   14.2245   24.8260 C   0  0  0  0  0  0  0  0  0  0  0  0
    2.8173   13.6374   24.4678 N   0  0  0  0  0  0  0  0  0  0  0  0
    3.9824   15.3799   25.5281 N   0  0  0  0  0  0  0  0  0  0  0  0
    5.1512   15.9276   25.9256 C   0  0  0  0  0  0  0  0  0  0  0  0
    6.4053   15.4821   25.7047 N   0  0  0  0  0  0  0  0  0  0  0  0
    6.3905   14.3406   24.9969 C   0  0  0  0  0  0  0  0  0  0  0  0
    7.4629   13.5579   24.6456 N   0  0  0  0  0  0  0  0  0  0  0  0
    2.8917   12.9918   23.6892 H   0  0  0  0  0  0  0  0  0  0  0  0
    2.0469   14.2918   24.4813 H   0  0  0  0  0  0  0  0  0  0  0  0
    7.7836   11.2219   23.6472 C   0  0  0  0  0  0  0  0  0  0  0  0
    5.2462    9.0685   21.7182 C   0  0  0  0  0  0  0  0  0  0  0  0
    6.3244    9.9532   21.9634 C   0  0  0  0  0  0  0  0  0  0  0  0
    6.8853   10.0646   23.2421 C   0  0  0  0  0  0  0  0  0  0  0  0
    6.5366    9.0939   24.1925 C   0  0  0  0  0  0  0  0  0  0  0  0
    5.6079    8.0863   23.9050 C   0  0  0  0  0  0  0  0  0  0  0  0
    4.9031    8.0936   22.6825 C   0  0  0  0  0  0  0  0  0  0  0  0
    7.0710   10.8058   20.6363 Cl  0  0  0  0  0  0  0  0  0  0  0  0
    4.5482    7.8591   19.8238 C   0  0  0  0  0  0  0  0  0  0  0  0
    4.5799    9.1183   20.5136 O   0  0  0  0  0  0  0  0  0  0  0  0
    3.9303    7.1361   22.5842 O   0  0  0  0  0  0  0  0  0  0  0  0
    2.6767    7.2986   23.2240 C   0  0  0  0  0  0  0  0  0  0  0  0
    5.4249    7.2157   24.9543 O   0  0  0  0  0  0  0  0  0  0  0  0
    6.3297    6.1180   25.0331 C   0  0  0  0  0  0  0  0  0  0  0  0
    8.8274   13.7974   25.0974 C   0  0  0  0  0  0  0  0  0  0  0  0
    9.0837   15.2270   25.4856 C   0  0  0  0  0  0  0  0  0  0  0  0
   10.0471   15.6724   26.3088 C   0  0  0  0  0  0  0  0  0  0  0  0
   11.0850   14.8621   27.0187 C   0  0  0  0  0  0  0  0  0  0  0  0
 21 22  1  0  0  0
 22 14  1  0  0  0
 14 15  1  0  0  0
 14 19  2  0  0  0
 15 16  2  0  0  0
 15 20  1  0  0  0
 16 17  1  0  0  0
 16 13  1  0  0  0
 17 18  2  0  0  0
 18 19  1  0  0  0
 18 25  1  0  0  0
 19 23  1  0  0  0
 23 24  1  0  0  0
 25 26  1  0  0  0
 13  1  1  0  0  0
  1  2  2  0  0  0
  1 10  1  0  0  0
  2  3  1  0  0  0
  3  4  1  0  0  0
  3  9  2  0  0  0
  4  5  1  0  0  0
  4  6  2  0  0  0
  5 11  1  0  0  0
  5 12  1  0  0  0
  6  7  1  0  0  0
  7  8  2  0  0  0
  8  9  1  0  0  0
  9 10  1  0  0  0
 10 27  1  0  0  0
 27 28  1  0  0  0
 28 29  2  0  0  0
 29 30  1  0  0  0
M  END
> <minimizedAffinity>
-9.81644

$$$$
data/HSP90/cocry_dataset/1uyd_PU8_LIG.pdb


 30 32  0  0  0  0  0  0  0  0999 V2000
    5.0621   11.9343   23.6660 C   0  0  0  0  0  0  0  0  0  0  0  0
    4.5449   12.9728   24.3112 N   0  0  0  0  0  0  0  0  0  0  0  0
    5.6042   13.8129   24.5685 C   0  0  0  0  0  0  0  0  0  0  0  0
    5.7194   14.9963   25.3218 C   0  0  0  0  0  0  0  0  0  0  0  0
    4.6635   15.5675   26.0174 N   0  0  0  0  0  0  0  0  0  0  0  0
    6.9287   15.5974   25.3962 N   0  0  0  0  0  0  0  0  0  0  0  0
    7.9718   15.0163   24.7650 C   0  0  0  0  0  0  0  0  0  0  0  0
    7.9838   13.8857   24.0289 N   0  0  0  0  0  0  0  0  0  0  0  0
    6.7602   13.3342   23.9780 C   0  0  0  0  0  0  0  0  0  0  0  0
    6.3992   12.1475   23.3885 N   0  0  0  0  0  0  0  0  0  0  0  0
    3.7499   15.2929   25.6730 H   0  0  0  0  0  0  0  0  0  0  0  0
    4.8246   16.5409   26.2377 H   0  0  0  0  0  0  0  0  0  0  0  0
    4.3200   10.6530   23.3902 C   0  0  0  0  0  0  0  0  0  0  0  0
    0.8593    9.7746   24.8213 C   0  0  0  0  0  0  0  0  0  0  0  0
    2.2682    9.8468   24.6995 C   0  0  0  0  0  0  0  0  0  0  0  0
    2.8674   10.7617   23.8243 C   0  0  0  0  0  0  0  0  0  0  0  0
    2.0581   11.7725   23.2853 C   0  0  0  0  0  0  0  0  0  0  0  0
    0.6846   11.8320   23.5507 C   0  0  0  0  0  0  0  0  0  0  0  0
    0.0527   10.7987   24.2747 C   0  0  0  0  0  0  0  0  0  0  0  0
    3.2837    8.8990   25.7558 Cl  0  0  0  0  0  0  0  0  0  0  0  0
    0.2732    7.4953   24.8159 C   0  0  0  0  0  0  0  0  0  0  0  0
    0.2850    8.7417   25.5291 O   0  0  0  0  0  0  0  0  0  0  0  0
   -1.3096   10.9089   24.3462 O   0  0  0  0  0  0  0  0  0  0  0  0
   -1.9778   10.9206   25.5954 C   0  0  0  0  0  0  0  0  0  0  0  0
    0.0739   12.9121   22.9567 O   0  0  0  0  0  0  0  0  0  0  0  0
    0.0246   12.9093   21.5329 C   0  0  0  0  0  0  0  0  0  0  0  0
    7.3467   11.2121   22.7965 C   0  0  0  0  0  0  0  0  0  0  0  0
    8.0740   10.3777   23.8138 C   0  0  0  0  0  0  0  0  0  0  0  0
    7.8787    9.0728   24.0658 C   0  0  0  0  0  0  0  0  0  0  0  0
    6.9092    8.1510   23.3965 C   0  0  0  0  0  0  0  0  0  0  0  0
 21 22  1  0  0  0
 22 14  1  0  0  0
 14 15  1  0  0  0
 14 19  2  0  0  0
 15 16  2  0  0  0
 15 20  1  0  0  0
 16 17  1  0  0  0
 16 13  1  0  0  0
 17 18  2  0  0  0
 18 19  1  0  0  0
 18 25  1  0  0  0
 19 23  1  0  0  0
 23 24  1  0  0  0
 25 26  1  0  0  0
 13  1  1  0  0  0
  1  2  2  0  0  0
  1 10  1  0  0  0
  2  3  1  0  0  0
  3  4  1  0  0  0
  3  9  2  0  0  0
  4  5  1  0  0  0
  4  6  2  0  0  0
  5 11  1  0  0  0
  5 12  1  0  0  0
  6  7  1  0  0  0
  7  8  2  0  0  0
  8  9  1  0  0  0
  9 10  1  0  0  0
 10 27  1  0  0  0
 27 28  1  0  0  0
 28 29  2  0  0  0
 29 30  1  0  0  0
M  END
> <minimizedAffinity>
-9.76513

$$$$
