data/HSP90/cocry_dataset/1uye_PU9_LIG.pdb
 OpenBabel03092321123D

 31 33  0  0  0  0  0  0  0  0999 V2000
    5.0906   11.9262   23.5626 C   0  0  0  0  0  0  0  0  0  0  0  0
    4.5252   12.9612   24.1661 N   0  0  0  0  0  0  0  0  0  0  0  0
    5.5549   13.7772   24.5635 C   0  0  0  0  0  0  0  0  0  0  0  0
    5.6008   14.9241   25.3707 C   0  0  0  0  0  0  0  0  0  0  0  0
    4.4785   15.4610   25.9853 N   0  0  0  0  0  0  0  0  0  0  0  0
    6.7974   15.5151   25.5884 N   0  0  0  0  0  0  0  0  0  0  0  0
    7.8956   14.9520   25.0383 C   0  0  0  0  0  0  0  0  0  0  0  0
    7.9755   13.8508   24.2649 N   0  0  0  0  0  0  0  0  0  0  0  0
    6.7637   13.3081   24.0736 C   0  0  0  0  0  0  0  0  0  0  0  0
    6.4518   12.1453   23.4113 N   0  0  0  0  0  0  0  0  0  0  0  0
    3.6046   15.1754   25.5578 H   0  0  0  0  0  0  0  0  0  0  0  0
    4.5971   16.4315   26.2393 H   0  0  0  0  0  0  0  0  0  0  0  0
    4.3457   10.6696   23.1761 C   0  0  0  0  0  0  0  0  0  0  0  0
    1.5041   11.9008   22.9507 Cl  0  0  0  0  0  0  0  0  0  0  0  0
    2.0434   10.9356   24.2949 C   0  0  0  0  0  0  0  0  0  0  0  0
    1.1812   10.6899   25.3926 C   0  0  0  0  0  0  0  0  0  0  0  0
    1.4647    9.6265   26.2861 C   0  0  0  0  0  0  0  0  0  0  0  0
    2.6150    8.8425   26.0615 C   0  0  0  0  0  0  0  0  0  0  0  0
    3.5129    9.1967   25.0421 C   0  0  0  0  0  0  0  0  0  0  0  0
    3.2780   10.2761   24.1827 C   0  0  0  0  0  0  0  0  0  0  0  0
    0.0071   11.3882   25.5621 O   0  0  0  0  0  0  0  0  0  0  0  0
   -1.1506   10.8275   24.9375 C   0  0  0  0  0  0  0  0  0  0  0  0
    0.7197    9.2624   27.3754 O   0  0  0  0  0  0  0  0  0  0  0  0
   -0.0409    8.0683   27.3913 C   0  0  0  0  0  0  0  0  0  0  0  0
    3.0333    7.7184   26.7320 O   0  0  0  0  0  0  0  0  0  0  0  0
    3.3189    6.5271   26.0127 C   0  0  0  0  0  0  0  0  0  0  0  0
    7.4432   11.2309   22.8869 C   0  0  0  0  0  0  0  0  0  0  0  0
    7.9429   10.1859   23.8907 C   0  0  0  0  0  0  0  0  0  0  0  0
    8.0841    8.8079   23.2363 C   0  0  0  0  0  0  0  0  0  0  0  0
    7.5491    7.7469   24.1842 C   0  0  0  0  0  0  0  0  0  0  0  0
    7.0901    6.8368   24.9973 C   0  0  0  0  0  0  0  0  0  0  0  0
  1  2  2  0  0  0  0
  1 10  1  0  0  0  0
  2  3  1  0  0  0  0
  3  4  1  0  0  0  0
  3  9  2  0  0  0  0
  4  5  1  0  0  0  0
  4  6  2  0  0  0  0
  5 11  1  0  0  0  0
  5 12  1  0  0  0  0
  6  7  1  0  0  0  0
  7  8  2  0  0  0  0
  8  9  1  0  0  0  0
  9 10  1  0  0  0  0
 10 27  1  0  0  0  0
 13  1  1  0  0  0  0
 14 15  1  0  0  0  0
 15 16  1  0  0  0  0
 15 20  2  0  0  0  0
 16 21  1  0  0  0  0
 16 17  2  0  0  0  0
 17 23  1  0  0  0  0
 17 18  1  0  0  0  0
 18 25  1  0  0  0  0
 18 19  2  0  0  0  0
 19 20  1  0  0  0  0
 20 13  1  0  0  0  0
 21 22  1  0  0  0  0
 23 24  1  0  0  0  0
 25 26  1  0  0  0  0
 27 28  1  0  0  0  0
 28 29  1  0  0  0  0
 29 30  1  0  0  0  0
 30 31  3  0  0  0  0
M  END
>  <minimizedAffinity>
-9.92339

$$$$
