data/HSP90/cocry_dataset/1uyf_PU1_LIG.pdb
 OpenBabel03092321123D

 32 34  0  0  0  0  0  0  0  0999 V2000
    5.1286   11.9531   23.7590 C   0  0  0  0  0  0  0  0  0  0  0  0
    4.5869   12.9965   24.3667 N   0  0  0  0  0  0  0  0  0  0  0  0
    5.6200   13.8919   24.5890 C   0  0  0  0  0  0  0  0  0  0  0  0
    5.7096   15.1011   25.3069 C   0  0  0  0  0  0  0  0  0  0  0  0
    4.6524   15.7021   25.9739 N   0  0  0  0  0  0  0  0  0  0  0  0
    6.9114   15.7243   25.3669 N   0  0  0  0  0  0  0  0  0  0  0  0
    7.9692   15.1493   24.7622 C   0  0  0  0  0  0  0  0  0  0  0  0
    7.9949   14.0061   24.0502 N   0  0  0  0  0  0  0  0  0  0  0  0
    6.7855   13.4254   24.0207 C   0  0  0  0  0  0  0  0  0  0  0  0
    6.4614   12.2160   23.4617 N   0  0  0  0  0  0  0  0  0  0  0  0
    9.1442   15.7838   24.9039 F   0  0  0  0  0  0  0  0  0  0  0  0
    3.7366   15.4434   25.6414 H   0  0  0  0  0  0  0  0  0  0  0  0
    4.8344   16.6715   26.1962 H   0  0  0  0  0  0  0  0  0  0  0  0
    4.4268   10.6423   23.4557 C   0  0  0  0  0  0  0  0  0  0  0  0
    3.3796    8.7970   25.7117 Cl  0  0  0  0  0  0  0  0  0  0  0  0
    2.3462    9.6706   24.6136 C   0  0  0  0  0  0  0  0  0  0  0  0
    0.9373    9.5372   24.6868 C   0  0  0  0  0  0  0  0  0  0  0  0
    0.1168   10.5689   24.1662 C   0  0  0  0  0  0  0  0  0  0  0  0
    0.7330   11.6828   23.5562 C   0  0  0  0  0  0  0  0  0  0  0  0
    2.1180   11.6819   23.3258 C   0  0  0  0  0  0  0  0  0  0  0  0
    2.9429   10.6545   23.8056 C   0  0  0  0  0  0  0  0  0  0  0  0
    0.3129    8.4804   25.3053 O   0  0  0  0  0  0  0  0  0  0  0  0
    0.4080    7.1934   24.6948 C   0  0  0  0  0  0  0  0  0  0  0  0
   -1.2538   10.6086   24.1761 O   0  0  0  0  0  0  0  0  0  0  0  0
   -1.9755   10.9979   25.3323 C   0  0  0  0  0  0  0  0  0  0  0  0
    0.1093   12.8078   23.0642 O   0  0  0  0  0  0  0  0  0  0  0  0
   -0.0423   12.9083   21.6483 C   0  0  0  0  0  0  0  0  0  0  0  0
    7.4243   11.3295   22.8353 C   0  0  0  0  0  0  0  0  0  0  0  0
    8.0782   10.3504   23.8164 C   0  0  0  0  0  0  0  0  0  0  0  0
    8.2020    8.9451   23.2224 C   0  0  0  0  0  0  0  0  0  0  0  0
    7.6131    7.9445   24.1247 C   0  0  0  0  0  0  0  0  0  0  0  0
    7.1876    7.0679   24.8346 C   0  0  0  0  0  0  0  0  0  0  0  0
  1  2  2  0  0  0  0
  1 10  1  0  0  0  0
  2  3  1  0  0  0  0
  3  4  1  0  0  0  0
  3  9  2  0  0  0  0
  4  5  1  0  0  0  0
  4  6  2  0  0  0  0
  5 12  1  0  0  0  0
  5 13  1  0  0  0  0
  6  7  1  0  0  0  0
  7  8  2  0  0  0  0
  7 11  1  0  0  0  0
  8  9  1  0  0  0  0
  9 10  1  0  0  0  0
 10 28  1  0  0  0  0
 14  1  1  0  0  0  0
 15 16  1  0  0  0  0
 16 17  1  0  0  0  0
 16 21  2  0  0  0  0
 17 22  1  0  0  0  0
 17 18  2  0  0  0  0
 18 24  1  0  0  0  0
 18 19  1  0  0  0  0
 19 26  1  0  0  0  0
 19 20  2  0  0  0  0
 20 21  1  0  0  0  0
 21 14  1  0  0  0  0
 22 23  1  0  0  0  0
 24 25  1  0  0  0  0
 26 27  1  0  0  0  0
 28 29  1  0  0  0  0
 29 30  1  0  0  0  0
 30 31  1  0  0  0  0
 31 32  3  0  0  0  0
M  END
>  <minimizedAffinity>
-9.82627

$$$$
