data/HSP90/cocry_dataset/1uyf_PU1_LIG.pdb
 OpenBabel03092321123D

 32 34  0  0  0  0  0  0  0  0999 V2000
    4.4512   11.4631   23.5892 C   0  0  0  0  0  0  0  0  0  0  0  0
    5.7089   11.8728   23.6311 N   0  0  0  0  0  0  0  0  0  0  0  0
    5.6931   13.0999   24.2734 C   0  0  0  0  0  0  0  0  0  0  0  0
    6.6763   14.0847   24.4944 C   0  0  0  0  0  0  0  0  0  0  0  0
    7.9993   13.9824   24.0907 N   0  0  0  0  0  0  0  0  0  0  0  0
    6.3130   15.2219   25.1356 N   0  0  0  0  0  0  0  0  0  0  0  0
    5.0270   15.3715   25.5087 C   0  0  0  0  0  0  0  0  0  0  0  0
    4.0131   14.4985   25.3527 N   0  0  0  0  0  0  0  0  0  0  0  0
    4.4199   13.3915   24.7126 C   0  0  0  0  0  0  0  0  0  0  0  0
    3.6437   12.3343   24.3123 N   0  0  0  0  0  0  0  0  0  0  0  0
    4.7152   16.5418   26.0885 F   0  0  0  0  0  0  0  0  0  0  0  0
    8.3300   13.0407   23.9491 H   0  0  0  0  0  0  0  0  0  0  0  0
    8.6012   14.6448   24.5612 H   0  0  0  0  0  0  0  0  0  0  0  0
    3.9406   10.2470   22.8389 C   0  0  0  0  0  0  0  0  0  0  0  0
    1.6534    8.5694   24.0821 Cl  0  0  0  0  0  0  0  0  0  0  0  0
    3.3460    8.2479   24.3437 C   0  0  0  0  0  0  0  0  0  0  0  0
    3.7578    7.1932   25.1957 C   0  0  0  0  0  0  0  0  0  0  0  0
    5.0483    6.6320   25.0277 C   0  0  0  0  0  0  0  0  0  0  0  0
    5.8979    7.1695   24.0369 C   0  0  0  0  0  0  0  0  0  0  0  0
    5.5292    8.3390   23.3530 C   0  0  0  0  0  0  0  0  0  0  0  0
    4.2686    8.9276   23.5289 C   0  0  0  0  0  0  0  0  0  0  0  0
    2.9386    6.6292   26.1444 O   0  0  0  0  0  0  0  0  0  0  0  0
    2.7331    7.3422   27.3640 C   0  0  0  0  0  0  0  0  0  0  0  0
    5.5918    5.5987   25.7469 O   0  0  0  0  0  0  0  0  0  0  0  0
    6.3696    5.8328   26.9085 C   0  0  0  0  0  0  0  0  0  0  0  0
    7.1468    6.7119   23.6797 O   0  0  0  0  0  0  0  0  0  0  0  0
    8.2543    7.5847   23.9020 C   0  0  0  0  0  0  0  0  0  0  0  0
    2.2046   12.2744   24.4875 C   0  0  0  0  0  0  0  0  0  0  0  0
    1.4454   13.3033   23.6428 C   0  0  0  0  0  0  0  0  0  0  0  0
    0.3986   12.6417   22.7429 C   0  0  0  0  0  0  0  0  0  0  0  0
   -0.6286   11.9654   23.5490 C   0  0  0  0  0  0  0  0  0  0  0  0
   -1.5102   11.3902   24.1366 C   0  0  0  0  0  0  0  0  0  0  0  0
  1  2  2  0  0  0  0
  1 10  1  0  0  0  0
  2  3  1  0  0  0  0
  3  4  1  0  0  0  0
  3  9  2  0  0  0  0
  4  5  1  0  0  0  0
  4  6  2  0  0  0  0
  5 12  1  0  0  0  0
  5 13  1  0  0  0  0
  6  7  1  0  0  0  0
  7  8  2  0  0  0  0
  7 11  1  0  0  0  0
  8  9  1  0  0  0  0
  9 10  1  0  0  0  0
 10 28  1  0  0  0  0
 14  1  1  0  0  0  0
 15 16  1  0  0  0  0
 16 17  1  0  0  0  0
 16 21  2  0  0  0  0
 17 22  1  0  0  0  0
 17 18  2  0  0  0  0
 18 24  1  0  0  0  0
 18 19  1  0  0  0  0
 19 26  1  0  0  0  0
 19 20  2  0  0  0  0
 20 21  1  0  0  0  0
 21 14  1  0  0  0  0
 22 23  1  0  0  0  0
 24 25  1  0  0  0  0
 26 27  1  0  0  0  0
 28 29  1  0  0  0  0
 29 30  1  0  0  0  0
 30 31  1  0  0  0  0
 31 32  3  0  0  0  0
M  END
>  <minimizedAffinity>
-8.83582

$$$$
